[TITLE]


[JUNCTIONS]
;ID              	Elev        	Demand      	Pattern         
 O-931_South     	1345.1000   	0.000000    	1               	;
 I-AV-1          	1440.3000   	0.000000    	1               	;
 O-AV-10         	1131.9000   	0.000000    	1               	;
 I-AV-11         	1138.5000   	0.000000    	1               	;
 I-AV-12         	1463.3000   	0.000000    	1               	;
 I-AV-13         	1148.3000   	0.000000    	1               	;
 I-AV-14         	1141.7000   	0.000000    	1               	;
 I-AV-15         	1135.2000   	0.000000    	1               	;
 O-AV-16         	1141.7000   	0.000000    	1               	;
 I-AV-17         	1138.5000   	0.000000    	1               	;
 I-AV-18         	1161.4000   	0.000000    	1               	;
 O-AV-19         	1138.5000   	0.000000    	1               	;
 I-AV-2          	1145.0000   	0.000000    	1               	;
 I-AV-20         	1138.5000   	0.000000    	1               	;
 I-AV-21         	1138.5000   	0.000000    	1               	;
 O-AV-22         	1151.6000   	0.000000    	1               	;
 I-AV-23         	1417.3000   	0.000000    	1               	;
 O-AV-24         	1151.6000   	0.000000    	1               	;
 O-AV-25         	1213.9000   	0.000000    	1               	;
 I-AV-26         	1184.4000   	0.000000    	1               	;
 I-AV-27         	1184.4000   	0.000000    	1               	;
 I-AV-28         	1145.0000   	0.000000    	1               	;
 O-AV-29         	1145.0000   	0.000000    	1               	;
 I-AV-3          	1204.1000   	0.000000    	1               	;
 O-AV-30         	1148.3000   	0.000000    	1               	;
 I-AV-31         	1263.1000   	0.000000    	1               	;
 O-AV-32         	1200.8000   	0.000000    	1               	;
 I-AV-33         	679.1000    	0.000000    	1               	;
 I-AV-34         	1122.1000   	0.000000    	1               	;
 O-AV-35         	839.9000    	0.000000    	1               	;
 O-AV-36         	820.2000    	0.000000    	1               	;
 O-AV-37         	702.1000    	0.000000    	1               	;
 O-AV-38         	876.0000    	0.000000    	1               	;
 I-AV-39         	761.2000    	0.000000    	1               	;
 I-AV-4          	1151.6000   	0.000000    	1               	;
 I-AV-40         	751.3000    	0.000000    	1               	;
 O-AV-41         	748.0000    	0.000000    	1               	;
 I-AV-42         	744.8000    	0.000000    	1               	;
 O-AV-43         	741.5000    	0.000000    	1               	;
 I-AV-44         	718.5000    	0.000000    	1               	;
 I-AV-45         	1138.5000   	0.000000    	1               	;
 I-AV-46         	728.4000    	0.000000    	1               	;
 I-AV-47         	718.5000    	0.000000    	1               	;
 O-AV-48         	711.9000    	0.000000    	1               	;
 O-AV-49         	666.0000    	0.000000    	1               	;
 I-AV-5          	1148.3000   	0.000000    	1               	;
 O-AV-50         	675.9000    	0.000000    	1               	;
 I-AV-51         	666.0000    	0.000000    	1               	;
 I-AV-52         	672.6000    	0.000000    	1               	;
 I-AV-53         	698.8000    	0.000000    	1               	;
 I-AV-54         	698.8000    	0.000000    	1               	;
 I-AV-55         	698.8000    	0.000000    	1               	;
 I-AV-56         	1138.5000   	0.000000    	1               	;
 I-AV-57         	715.2000    	0.000000    	1               	;
 O-AV-58         	695.5000    	0.000000    	1               	;
 O-AV-59         	679.1000    	0.000000    	1               	;
 I-AV-6          	1148.3000   	0.000000    	1               	;
 I-AV-60         	685.7000    	0.000000    	1               	;
 I-AV-61         	652.9000    	0.000000    	1               	;
 O-AV-62         	666.0000    	0.000000    	1               	;
 I-AV-63         	669.3000    	0.000000    	1               	;
 O-AV-64         	666.0000    	0.000000    	1               	;
 O-AV-65         	748.0000    	0.000000    	1               	;
 O-AV-66         	702.1000    	0.000000    	1               	;
 I-AV-67         	1138.5000   	0.000000    	1               	;
 I-AV-68         	708.7000    	0.000000    	1               	;
 I-AV-69         	702.1000    	0.000000    	1               	;
 O-AV-7          	1151.6000   	0.000000    	1               	;
 O-AV-70         	711.9000    	0.000000    	1               	;
 I-AV-71         	708.7000    	0.000000    	1               	;
 O-AV-72         	679.1000    	0.000000    	1               	;
 O-AV-73         	689.0000    	0.000000    	1               	;
 I-AV-74         	643.0000    	0.000000    	1               	;
 I-AV-75         	629.9000    	0.000000    	1               	;
 I-AV-76         	685.7000    	0.000000    	1               	;
 O-AV-77         	603.7000    	0.000000    	1               	;
 I-AV-78         	1141.7000   	0.000000    	1               	;
 I-AV-79         	600.4000    	0.000000    	1               	;
 I-AV-8          	1122.1000   	0.000000    	1               	;
 I-AV-80         	587.3000    	0.000000    	1               	;
 I-AV-81         	587.3000    	0.000000    	1               	;
 I-AV-82         	593.8000    	0.000000    	1               	;
 I-AV-83         	610.2000    	0.000000    	1               	;
 O-AV-84         	590.6000    	0.000000    	1               	;
 O-AV-85         	603.7000    	0.000000    	1               	;
 O-AV-86         	639.8000    	0.000000    	1               	;
 I-AV-87         	1141.7000   	0.000000    	1               	;
 I-AV-88         	757.9000    	0.000000    	1               	;
 I-AV-89         	597.1000    	0.000000    	1               	;
 I-AV-9          	1122.1000   	0.000000    	1               	;
 O-AV-90         	593.8000    	0.000000    	1               	;
 I-AV-91         	643.0000    	0.000000    	1               	;
 O-AV-92         	636.5000    	0.000000    	1               	;
 I-AV-93         	705.4000    	0.000000    	1               	;
 I-AV-94         	689.0000    	0.000000    	1               	;
 I-AV-95         	718.5000    	0.000000    	1               	;
 I-AV-96         	777.6000    	0.000000    	1               	;
 O-Bartesta_Brancha	1210.6000   	0.000000    	1               	;
 I-Food_World    	1204.1000   	0.000000    	1               	;
 J-1             	1158.1000   	0.600000    	1               	;
 J-10            	1227.0000   	0.900000    	1               	;
 J-100           	1299.2000   	2.100000    	1               	;
 J-101           	1168.0000   	1.700000    	1               	;
 J-102           	1154.9000   	1.700000    	1               	;
 J-103           	1168.0000   	1.100000    	1               	;
 J-104           	1200.8000   	1.100000    	1               	;
 J-105           	1341.9000   	2.500000    	1               	;
 J-106           	1204.1000   	1.400000    	1               	;
 J-107           	1177.8000   	1.300000    	1               	;
 J-108           	1164.7000   	3.200000    	1               	;
 J-109           	1174.5000   	2.400000    	1               	;
 J-11            	1177.8000   	3.000000    	1               	;
 J-110           	1230.3000   	6.400000    	1               	;
 J-111           	1151.6000   	0.200000    	1               	;
 J-112           	1171.3000   	0.800000    	1               	;
 J-113           	1168.0000   	0.400000    	1               	;
 J-114           	1161.4000   	0.300000    	1               	;
 J-115           	1177.8000   	1.300000    	1               	;
 J-116           	1122.1000   	0.900000    	1               	;
 J-117           	1131.9000   	0.600000    	1               	;
 J-118           	1151.6000   	1.900000    	1               	;
 J-119           	1148.3000   	0.300000    	1               	;
 J-12            	1227.0000   	2.900000    	1               	;
 J-120           	1204.1000   	1.400000    	1               	;
 J-121           	1177.8000   	2.000000    	1               	;
 J-122           	1168.0000   	1.600000    	1               	;
 J-123           	1322.2000   	7.700000    	1               	;
 J-124           	1161.4000   	0.200000    	1               	;
 J-125           	1164.7000   	0.300000    	1               	;
 J-126           	1122.1000   	0.500000    	1               	;
 J-127           	1122.1000   	1.100000    	1               	;
 J-128           	1437.0000   	1.800000    	1               	;
 J-129           	1486.2000   	5.200000    	1               	;
 J-13            	1246.7000   	4.200000    	1               	;
 J-130           	1220.5000   	0.500000    	1               	;
 J-131           	1243.4000   	0.300000    	1               	;
 J-132           	1177.8000   	0.900000    	1               	;
 J-133           	1177.8000   	2.000000    	1               	;
 J-134           	1200.8000   	3.200000    	1               	;
 J-135           	1256.6000   	0.500000    	1               	;
 J-136           	1181.1000   	1.100000    	1               	;
 J-137           	1161.4000   	1.700000    	1               	;
 J-138           	1187.7000   	3.200000    	1               	;
 J-139           	1158.1000   	0.900000    	1               	;
 J-14            	1177.8000   	1.300000    	1               	;
 J-140           	1230.3000   	0.500000    	1               	;
 J-141           	1171.3000   	0.100000    	1               	;
 J-142           	1394.4000   	1.400000    	1               	;
 J-143           	1138.5000   	0.600000    	1               	;
 J-144           	1177.8000   	1.600000    	1               	;
 J-145           	1158.1000   	2.000000    	1               	;
 J-146           	1200.8000   	0.400000    	1               	;
 J-147           	1266.4000   	0.400000    	1               	;
 J-148           	1141.7000   	0.600000    	1               	;
 J-149           	1141.7000   	0.900000    	1               	;
 J-15            	1184.4000   	0.900000    	1               	;
 J-150           	1233.6000   	0.700000    	1               	;
 J-151           	1145.0000   	0.600000    	1               	;
 J-152           	1240.2000   	0.600000    	1               	;
 J-153           	1207.3000   	4.500000    	1               	;
 J-154           	1177.8000   	4.100000    	1               	;
 J-155           	1230.3000   	7.500000    	1               	;
 J-156           	1204.1000   	3.100000    	1               	;
 J-157           	1145.0000   	1.200000    	1               	;
 J-158           	1148.3000   	0.600000    	1               	;
 J-159           	1168.0000   	0.500000    	1               	;
 J-16            	1243.4000   	1.300000    	1               	;
 J-160           	1128.6000   	3.400000    	1               	;
 J-161           	1145.0000   	1.000000    	1               	;
 J-162           	1177.8000   	0.700000    	1               	;
 J-163           	1348.4000   	0.300000    	1               	;
 J-164           	689.0000    	0.400000    	1               	;
 J-165           	1256.6000   	1.600000    	1               	;
 J-166           	1348.4000   	1.600000    	1               	;
 J-167           	1168.0000   	0.900000    	1               	;
 J-168           	1348.4000   	0.200000    	1               	;
 J-169           	689.0000    	0.000000    	1               	;
 J-17            	1256.6000   	1.700000    	1               	;
 J-170           	1177.8000   	0.000000    	1               	;
 J-171           	1177.8000   	0.000000    	1               	;
 J-172           	1141.7000   	0.100000    	1               	;
 J-173           	1138.5000   	0.900000    	1               	;
 J-174           	1151.6000   	2.600000    	1               	;
 J-175           	1161.4000   	4.100000    	1               	;
 J-176           	1187.7000   	3.700000    	1               	;
 J-177           	1240.2000   	3.500000    	1               	;
 J-178           	1141.7000   	0.100000    	1               	;
 J-179           	1227.0000   	0.600000    	1               	;
 J-18            	1204.1000   	2.200000    	1               	;
 J-180           	1145.0000   	0.500000    	1               	;
 J-181           	1164.7000   	0.200000    	1               	;
 J-182           	1145.0000   	0.600000    	1               	;
 J-183           	1115.5000   	1.100000    	1               	;
 J-184           	1151.6000   	0.800000    	1               	;
 J-185           	1171.3000   	1.900000    	1               	;
 J-186           	1158.1000   	0.700000    	1               	;
 J-187           	1138.5000   	0.900000    	1               	;
 J-188           	1154.9000   	0.600000    	1               	;
 J-189           	1322.2000   	1.700000    	1               	;
 J-19            	1190.9000   	1.300000    	1               	;
 J-191           	1335.3000   	1.800000    	1               	;
 J-192           	1148.3000   	1.000000    	1               	;
 J-193           	1131.9000   	1.600000    	1               	;
 J-194           	1138.5000   	0.600000    	1               	;
 J-195           	1168.0000   	0.700000    	1               	;
 J-196           	1135.2000   	0.500000    	1               	;
 J-197           	1230.3000   	0.500000    	1               	;
 J-198           	1207.3000   	0.600000    	1               	;
 J-199           	1200.8000   	0.600000    	1               	;
 J-2             	1204.1000   	1.500000    	1               	;
 J-20            	1141.7000   	0.600000    	1               	;
 J-200           	1161.4000   	0.300000    	1               	;
 J-201           	1181.1000   	0.300000    	1               	;
 J-202           	1161.4000   	0.600000    	1               	;
 J-203           	1187.7000   	0.600000    	1               	;
 J-204           	1164.7000   	3.500000    	1               	;
 J-205           	1181.1000   	0.700000    	1               	;
 J-206           	1131.9000   	0.500000    	1               	;
 J-207           	1138.5000   	0.200000    	1               	;
 J-208           	1151.6000   	0.200000    	1               	;
 J-209           	1345.1000   	0.500000    	1               	;
 J-21            	1148.3000   	0.700000    	1               	;
 J-210           	1148.3000   	0.600000    	1               	;
 J-211           	1141.7000   	0.400000    	1               	;
 J-212           	1158.1000   	0.200000    	1               	;
 J-213           	1181.1000   	1.600000    	1               	;
 J-214           	1187.7000   	1.000000    	1               	;
 J-215           	1197.5000   	0.500000    	1               	;
 J-216           	1190.9000   	0.600000    	1               	;
 J-217           	1213.9000   	0.600000    	1               	;
 J-218           	1158.1000   	0.900000    	1               	;
 J-219           	1151.6000   	1.000000    	1               	;
 J-22            	1194.2000   	0.500000    	1               	;
 J-220           	1154.9000   	0.500000    	1               	;
 J-221           	1151.6000   	0.300000    	1               	;
 J-222           	1177.8000   	0.600000    	1               	;
 J-223           	1158.1000   	0.600000    	1               	;
 J-224           	1204.1000   	1.100000    	1               	;
 J-225           	1171.3000   	0.600000    	1               	;
 J-226           	1184.4000   	0.600000    	1               	;
 J-227           	1289.4000   	1.600000    	1               	;
 J-228           	1184.4000   	1.400000    	1               	;
 J-229           	1138.5000   	5.100000    	1               	;
 J-23            	1151.6000   	0.600000    	1               	;
 J-230           	1122.1000   	5.100000    	1               	;
 J-231           	1164.7000   	0.600000    	1               	;
 J-232           	1145.0000   	0.100000    	1               	;
 J-233           	1154.9000   	1.100000    	1               	;
 J-234           	1151.6000   	0.600000    	1               	;
 J-235           	1148.3000   	1.600000    	1               	;
 J-236           	1154.9000   	0.100000    	1               	;
 J-237           	1164.7000   	0.200000    	1               	;
 J-238           	1154.9000   	0.200000    	1               	;
 J-239           	1184.4000   	0.900000    	1               	;
 J-24            	1158.1000   	0.400000    	1               	;
 J-240           	1168.0000   	1.000000    	1               	;
 J-241           	1164.7000   	0.100000    	1               	;
 J-242           	1145.0000   	0.200000    	1               	;
 J-243           	1151.6000   	0.200000    	1               	;
 J-244           	1154.9000   	0.000000    	1               	;
 J-245           	1154.9000   	0.000000    	1               	;
 J-246           	1164.7000   	0.300000    	1               	;
 J-247           	1177.8000   	0.300000    	1               	;
 J-248           	1154.9000   	0.000000    	1               	;
 J-249           	1154.9000   	0.000000    	1               	;
 J-25            	1161.4000   	1.000000    	1               	;
 J-250           	1361.6000   	0.200000    	1               	;
 J-251           	1259.8000   	0.500000    	1               	;
 J-252           	1328.7000   	0.500000    	1               	;
 J-253           	1269.7000   	0.600000    	1               	;
 J-254           	1358.3000   	0.400000    	1               	;
 J-255           	1253.3000   	0.200000    	1               	;
 J-256           	1273.0000   	0.100000    	1               	;
 J-257           	761.2000    	0.000000    	1               	;
 J-258           	1371.4000   	1.000000    	1               	;
 J-259           	1194.2000   	1.100000    	1               	;
 J-26            	1177.8000   	1.100000    	1               	;
 J-260           	1131.9000   	0.500000    	1               	;
 J-261           	1322.2000   	1.900000    	1               	;
 J-262           	1187.7000   	5.800000    	1               	;
 J-263           	1168.0000   	0.700000    	1               	;
 J-264           	1158.1000   	0.100000    	1               	;
 J-265           	1145.0000   	0.200000    	1               	;
 J-266           	1145.0000   	0.400000    	1               	;
 J-267           	1168.0000   	0.000000    	1               	;
 J-268           	1177.8000   	0.000000    	1               	;
 J-269           	1177.8000   	0.000000    	1               	;
 J-27            	1204.1000   	1.800000    	1               	;
 J-270           	1177.8000   	0.000000    	1               	;
 J-271           	1177.8000   	0.000000    	1               	;
 J-272           	1177.8000   	0.000000    	1               	;
 J-273           	1148.3000   	0.200000    	1               	;
 J-274           	1197.5000   	1.000000    	1               	;
 J-275           	1190.9000   	0.000000    	1               	;
 J-276           	1236.9000   	0.500000    	1               	;
 J-277           	1227.0000   	0.900000    	1               	;
 J-278           	1204.1000   	0.900000    	1               	;
 J-279           	1256.6000   	0.000000    	1               	;
 J-28            	1154.9000   	0.700000    	1               	;
 J-280           	1168.0000   	0.000000    	1               	;
 J-281           	1158.1000   	0.200000    	1               	;
 J-282           	1158.1000   	0.000000    	1               	;
 J-283           	1204.1000   	0.000000    	1               	;
 J-284           	1394.4000   	1.700000    	1               	;
 J-285           	1433.7000   	1.600000    	1               	;
 J-286           	1433.7000   	1.300000    	1               	;
 J-287           	1437.0000   	1.300000    	1               	;
 J-288           	1197.5000   	1.300000    	1               	;
 J-289           	1204.1000   	0.300000    	1               	;
 J-29            	1168.0000   	0.400000    	1               	;
 J-290           	1204.1000   	0.000000    	1               	;
 J-291           	1204.1000   	0.000000    	1               	;
 J-292           	1204.1000   	0.000000    	1               	;
 J-293           	1204.1000   	0.000000    	1               	;
 J-294           	1204.1000   	0.000000    	1               	;
 J-295           	1194.2000   	0.800000    	1               	;
 J-296           	1204.1000   	1.300000    	1               	;
 J-297           	1194.2000   	0.400000    	1               	;
 J-298           	1190.9000   	0.600000    	1               	;
 J-299           	1318.9000   	0.200000    	1               	;
 J-3             	1243.4000   	0.600000    	1               	;
 J-30            	1210.6000   	0.300000    	1               	;
 J-300           	1213.9000   	0.300000    	1               	;
 J-301           	1138.5000   	0.000000    	1               	;
 J-302           	1158.1000   	2.300000    	1               	;
 J-303           	1148.3000   	6.100000    	1               	;
 J-304           	1135.2000   	5.200000    	1               	;
 J-305           	1158.1000   	4.100000    	1               	;
 J-306           	1141.7000   	3.700000    	1               	;
 J-307           	1168.0000   	2.400000    	1               	;
 J-308           	1138.5000   	0.000000    	1               	;
 J-309           	1253.3000   	0.000000    	1               	;
 J-31            	1505.9000   	1.200000    	1               	;
 J-310           	1240.2000   	0.400000    	1               	;
 J-311           	1227.0000   	0.300000    	1               	;
 J-312           	1141.7000   	0.100000    	1               	;
 J-313           	1263.1000   	1.900000    	1               	;
 J-315           	1204.1000   	0.000000    	1               	;
 J-316           	1204.1000   	0.000000    	1               	;
 J-317           	666.0000    	0.200000    	1               	;
 J-318           	1473.1000   	0.100000    	1               	;
 J-319           	1482.9000   	0.000000    	1               	;
 J-32            	1368.1000   	1.500000    	1               	;
 J-320           	1473.1000   	0.000000    	1               	;
 J-321           	1505.9000   	0.000000    	1               	;
 J-322           	1181.1000   	0.100000    	1               	;
 J-323           	1168.0000   	0.400000    	1               	;
 J-324           	1184.4000   	0.200000    	1               	;
 J-325           	1184.4000   	0.100000    	1               	;
 J-326           	1184.4000   	0.100000    	1               	;
 J-327           	1345.1000   	0.700000    	1               	;
 J-328           	1174.5000   	0.300000    	1               	;
 J-329           	1164.7000   	0.000000    	1               	;
 J-33            	1151.6000   	1.800000    	1               	;
 J-330           	1138.5000   	0.300000    	1               	;
 J-331           	1148.3000   	0.400000    	1               	;
 J-332           	1154.9000   	0.200000    	1               	;
 J-333           	731.6000    	0.600000    	1               	;
 J-334           	702.1000    	0.400000    	1               	;
 J-335           	1151.6000   	1.900000    	1               	;
 J-336           	1197.5000   	0.700000    	1               	;
 J-337           	1184.4000   	0.100000    	1               	;
 J-338           	1246.7000   	1.400000    	1               	;
 J-339           	1161.4000   	1.000000    	1               	;
 J-34            	1151.6000   	2.000000    	1               	;
 J-340           	1194.2000   	0.300000    	1               	;
 J-341           	1194.2000   	0.100000    	1               	;
 J-342           	1184.4000   	0.400000    	1               	;
 J-343           	1177.8000   	2.000000    	1               	;
 J-344           	1164.7000   	1.000000    	1               	;
 J-345           	1164.7000   	1.000000    	1               	;
 J-346           	1138.5000   	0.600000    	1               	;
 J-347           	1135.2000   	0.200000    	1               	;
 J-348           	1138.5000   	0.300000    	1               	;
 J-349           	1168.0000   	0.200000    	1               	;
 J-35            	1220.5000   	0.800000    	1               	;
 J-350           	1164.7000   	1.400000    	1               	;
 J-351           	1233.6000   	2.100000    	1               	;
 J-352           	1158.1000   	0.400000    	1               	;
 J-353           	1148.3000   	0.700000    	1               	;
 J-354           	1171.3000   	0.200000    	1               	;
 J-355           	721.8000    	1.200000    	1               	;
 J-356           	1138.5000   	0.300000    	1               	;
 J-357           	1138.5000   	0.300000    	1               	;
 J-358           	1125.3000   	0.200000    	1               	;
 J-359           	1164.7000   	0.700000    	1               	;
 J-36            	1197.5000   	0.900000    	1               	;
 J-360           	1154.9000   	0.900000    	1               	;
 J-361           	1154.9000   	0.300000    	1               	;
 J-362           	1154.9000   	0.500000    	1               	;
 J-363           	1168.0000   	0.400000    	1               	;
 J-364           	1161.4000   	0.100000    	1               	;
 J-365           	1151.6000   	0.100000    	1               	;
 J-366           	1141.7000   	0.100000    	1               	;
 J-367           	1128.6000   	0.300000    	1               	;
 J-368           	1305.8000   	1.500000    	1               	;
 J-369           	1443.6000   	2.100000    	1               	;
 J-37            	1161.4000   	2.300000    	1               	;
 J-370           	1391.1000   	1.500000    	1               	;
 J-371           	941.6000    	0.400000    	1               	;
 J-372           	1174.5000   	0.100000    	1               	;
 J-373           	1158.1000   	0.100000    	1               	;
 J-374           	1351.7000   	1.300000    	1               	;
 J-375           	1253.3000   	0.000000    	1               	;
 J-376           	1299.2000   	0.200000    	1               	;
 J-377           	1177.8000   	1.200000    	1               	;
 J-378           	1151.6000   	0.000000    	1               	;
 J-379           	1151.6000   	0.000000    	1               	;
 J-38            	1148.3000   	0.500000    	1               	;
 J-380           	1151.6000   	0.100000    	1               	;
 J-381           	1190.9000   	0.100000    	1               	;
 J-382           	1158.1000   	0.800000    	1               	;
 J-383           	1151.6000   	1.400000    	1               	;
 J-384           	938.3000    	0.000000    	1               	;
 J-385           	1295.9000   	0.900000    	1               	;
 J-386           	738.2000    	0.200000    	1               	;
 J-387           	1148.3000   	2.000000    	1               	;
 J-388           	761.2000    	0.300000    	1               	;
 J-389           	1168.0000   	0.000000    	1               	;
 J-39            	1154.9000   	0.300000    	1               	;
 J-4             	1269.7000   	0.100000    	1               	;
 J-40            	1276.3000   	1.400000    	1               	;
 J-41            	1190.9000   	0.500000    	1               	;
 J-42            	1217.2000   	1.100000    	1               	;
 J-43            	1263.1000   	3.400000    	1               	;
 J-44            	1164.7000   	0.200000    	1               	;
 J-45            	1236.9000   	0.800000    	1               	;
 J-46            	1148.3000   	6.000000    	1               	;
 J-47            	1168.0000   	0.800000    	1               	;
 J-48            	1122.1000   	0.400000    	1               	;
 J-49            	1181.1000   	2.100000    	1               	;
 J-5             	1295.9000   	0.700000    	1               	;
 J-50            	1227.0000   	3.000000    	1               	;
 J-51            	1266.4000   	0.200000    	1               	;
 J-52            	1177.8000   	0.800000    	1               	;
 J-53            	1230.3000   	0.500000    	1               	;
 J-54            	1217.2000   	0.400000    	1               	;
 J-55            	1210.6000   	0.100000    	1               	;
 J-56            	1161.4000   	1.200000    	1               	;
 J-57            	1118.8000   	0.500000    	1               	;
 J-58            	1151.6000   	0.900000    	1               	;
 J-59            	1197.5000   	4.600000    	1               	;
 J-6             	1250.0000   	0.700000    	1               	;
 J-60            	1233.6000   	1.000000    	1               	;
 J-61            	1154.9000   	3.200000    	1               	;
 J-62            	1148.3000   	0.300000    	1               	;
 J-63            	1302.5000   	5.200000    	1               	;
 J-64            	1138.5000   	0.700000    	1               	;
 J-65            	1151.6000   	0.700000    	1               	;
 J-66            	1164.7000   	0.500000    	1               	;
 J-67            	1151.6000   	0.600000    	1               	;
 J-68            	1161.4000   	0.400000    	1               	;
 J-69            	1151.6000   	2.500000    	1               	;
 J-7             	1200.8000   	1.300000    	1               	;
 J-70            	1141.7000   	0.700000    	1               	;
 J-71            	1141.7000   	0.300000    	1               	;
 J-72            	1148.3000   	0.300000    	1               	;
 J-73            	1302.5000   	2.100000    	1               	;
 J-74            	1253.3000   	1.000000    	1               	;
 J-75            	1312.3000   	0.600000    	1               	;
 J-76            	1263.1000   	2.000000    	1               	;
 J-77            	1332.0000   	2.000000    	1               	;
 J-78            	1161.4000   	0.900000    	1               	;
 J-79            	1151.6000   	0.500000    	1               	;
 J-8             	1282.8000   	0.800000    	1               	;
 J-80            	1164.7000   	0.500000    	1               	;
 J-81            	1177.8000   	0.300000    	1               	;
 J-82            	1207.3000   	3.300000    	1               	;
 J-83            	1174.5000   	1.600000    	1               	;
 J-84            	1177.8000   	0.700000    	1               	;
 J-85            	1423.9000   	12.600000   	1               	;
 J-86            	1509.2000   	5.900000    	1               	;
 J-87            	1230.3000   	1.200000    	1               	;
 J-88            	1217.2000   	1.200000    	1               	;