[TITLE]


[JUNCTIONS]
;ID              	Elev        	Demand      	Pattern         
 I-AV-1          	712.7       	0           	                	;
 I-AV-105        	668.8       	0           	                	;
 I-AV-108        	748.9       	0           	                	;
 I-AV-11         	684         	0           	                	;
 I-AV-110        	670.7       	0           	                	;
 I-AV-111        	648.4       	0           	                	;
 I-AV-112        	616.1       	0           	                	;
 I-AV-114        	761.2       	0           	                	;
 I-AV-116        	627.1       	0           	                	;
 I-AV-117        	686.8       	0           	                	;
 I-AV-118        	718.5       	0           	                	;
 I-AV-119        	655.4       	0           	                	;
 I-AV-12         	686         	0           	                	;
 I-AV-120        	636.1       	0           	                	;
 I-AV-121        	655.4       	0           	                	;
 I-AV-122        	655.2       	0           	                	;
 I-AV-123        	668         	0           	                	;
 I-AV-124        	737         	0           	                	;
 I-AV-125        	670.6       	0           	                	;
 I-AV-126        	621.6       	0           	                	;
 I-AV-127        	644.2       	0           	                	;
 I-AV-128        	716.3       	0           	                	;
 I-AV-129        	661.9       	0           	                	;
 I-AV-13         	727.7       	0           	                	;
 I-AV-130        	653.4       	0           	                	;
 I-AV-134        	731.4       	0           	                	;
 I-AV-137        	665         	0           	                	;
 I-AV-138        	658.4       	0           	                	;
 I-AV-139        	660.2       	0           	                	;
 I-AV-14         	684         	0           	                	;
 I-AV-145        	782.9       	0           	                	;
 I-AV-149        	606.2       	0           	                	;
 I-AV-15         	724.7       	0           	                	;
 I-AV-150        	667.1       	0           	                	;
 I-AV-151        	649.3       	0           	                	;
 I-AV-154        	735.3       	0           	                	;
 I-AV-159        	581.3       	0           	                	;
 I-AV-16         	725.1       	0           	                	;
 I-AV-169        	726.9       	0           	                	;
 I-AV-171        	584.1       	0           	                	;
 I-AV-173        	725.6       	0           	                	;
 I-AV-174        	727.9       	0           	                	;
 I-AV-175        	739.4       	0           	                	;
 I-AV-176        	740.6       	0           	                	;
 I-AV-177        	743.5       	0           	                	;
 I-AV-178        	741.5       	0           	                	;
 I-AV-179        	726.2       	0           	                	;
 I-AV-18         	709.6       	0           	                	;
 I-AV-180        	710.1       	0           	                	;
 I-AV-181        	753.4       	0           	                	;
 I-AV-182        	753.1       	0           	                	;
 I-AV-183        	756         	0           	                	;
 I-AV-184        	759.4       	0           	                	;
 I-AV-185        	760.2       	0           	                	;
 I-AV-186        	760.6       	0           	                	;
 I-AV-187        	726.5       	0           	                	;
 I-AV-188        	761.3       	0           	                	;
 I-AV-189        	726.9       	0           	                	;
 I-AV-190        	715.8       	0           	                	;
 I-AV-191        	739.4       	0           	                	;
 I-AV-193        	661.4       	0           	                	;
 I-AV-194        	641.1       	0           	                	;
 I-AV-195        	578.3       	0           	                	;
 I-AV-197        	612         	0           	                	;
 I-AV-198        	617.7       	0           	                	;
 I-AV-199        	734.3       	0           	                	;
 I-AV-201        	695.3       	0           	                	;
 I-AV-203        	743.5       	0           	                	;
 I-AV-206        	617.3       	0           	                	;
 I-AV-207        	617.8       	0           	                	;
 I-AV-208        	773.8       	0           	                	;
 I-AV-209        	691.1       	0           	                	;
 I-AV-21         	742.5       	0           	                	;
 I-AV-210        	689.7       	0           	                	;
 I-AV-211        	732.2       	0           	                	;
 I-AV-218        	615.6       	0           	                	;
 I-AV-22         	737.6       	0           	                	;
 I-AV-221        	626.7       	0           	                	;
 I-AV-222        	747.5       	0           	                	;
 I-AV-224        	644         	0           	                	;
 I-AV-226        	726.1       	0           	                	;
 I-AV-227        	726.3       	0           	                	;
 I-AV-230        	578.6       	0           	                	;
 I-AV-231        	580         	0           	                	;
 I-AV-232        	684.9       	0           	                	;
 I-AV-233        	748.2       	0           	                	;
 I-AV-234        	674.1       	0           	                	;
 I-AV-235        	754.5       	0           	                	;
 I-AV-236        	725         	0           	                	;
 I-AV-237        	736.3       	0           	                	;
 I-AV-238        	620         	0           	                	;
 I-AV-239        	747         	0           	                	;
 I-AV-240        	722         	0           	                	;
 I-AV-241        	777.6       	0           	                	;
 I-AV-242        	762.8       	0           	                	;
 I-AV-243        	764.7       	0           	                	;
 I-AV-244        	744.8       	0           	                	;
 I-AV-245        	760.9       	0           	                	;
 I-AV-246        	760         	0           	                	;
 I-AV-247        	630.9       	0           	                	;
 I-AV-248        	676.6       	0           	                	;
 I-AV-249        	729.4       	0           	                	;
 I-AV-25         	742.8       	0           	                	;
 I-AV-250        	794.5       	0           	                	;
 I-AV-251        	681.4       	0           	                	;
 I-AV-252        	633.9       	0           	                	;
 I-AV-253        	646.4       	0           	                	;
 I-AV-254        	627.8       	0           	                	;
 I-AV-255        	744.8       	0           	                	;
 I-AV-256        	698.5       	0           	                	;
 I-AV-259        	711.1       	0           	                	;
 I-AV-26         	754.2       	0           	                	;
 I-AV-261        	737         	0           	                	;
 I-AV-264        	757.1       	0           	                	;
 I-AV-265        	756.9       	0           	                	;
 I-AV-266        	744.8       	0           	                	;
 I-AV-27         	751.9       	0           	                	;
 I-AV-270        	673.3       	0           	                	;
 I-AV-273        	669.9       	0           	                	;
 I-AV-275        	727.9       	0           	                	;
 I-AV-276        	692.9       	0           	                	;
 I-AV-277        	720.5       	0           	                	;
 I-AV-279        	667.2       	0           	                	;
 I-AV-28         	697.6       	0           	                	;
 I-AV-281        	659.4       	0           	                	;
 I-AV-285        	662.5       	0           	                	;
 I-AV-287        	713.4       	0           	                	;
 I-AV-288        	717.5       	0           	                	;
 I-AV-290        	716.3       	0           	                	;
 I-AV-291        	740.5       	0           	                	;
 I-AV-293        	748.8       	0           	                	;
 I-AV-294        	722.5       	0           	                	;
 I-AV-295        	721.5       	0           	                	;
 I-AV-296        	731.1       	0           	                	;
 I-AV-297        	728.1       	0           	                	;
 I-AV-298        	700.3       	0           	                	;
 I-AV-3          	623.8       	0           	                	;
 I-AV-300        	632.6       	0           	                	;
 I-AV-301        	732.5       	0           	                	;
 I-AV-305        	716.1       	0           	                	;
 I-AV-306        	739.8       	0           	                	;
 I-AV-307        	739.8       	0           	                	;
 I-AV-308        	662.2       	0           	                	;
 I-AV-309        	691         	0           	                	;
 I-AV-31         	723.2       	0           	                	;
 I-AV-310        	734.1       	0           	                	;
 I-AV-312        	692.5       	0           	                	;
 I-AV-315        	669.2       	0           	                	;
 I-AV-318        	663.5       	0           	                	;
 I-AV-32         	723.5       	0           	                	;
 I-AV-320        	710.6       	0           	                	;
 I-AV-322        	697.6       	0           	                	;
 I-AV-325        	665.1       	0           	                	;
 I-AV-326        	639         	0           	                	;
 I-AV-329        	658.5       	0           	                	;
 I-AV-330        	734.9       	0           	                	;
 I-AV-331        	710.3       	0           	                	;
 I-AV-332        	734.2       	0           	                	;
 I-AV-333        	721.3       	0           	                	;
 I-AV-334        	765.6       	0           	                	;
 I-AV-335        	683.2       	0           	                	;
 I-AV-336        	546.6       	0           	                	;
 I-AV-337        	725.3       	0           	                	;
 I-AV-338        	725.7       	0           	                	;
 I-AV-339        	726.1       	0           	                	;
 I-AV-34         	667.9       	0           	                	;
 I-AV-340        	732.8       	0           	                	;
 I-AV-341        	713         	0           	                	;
 I-AV-342        	728.3       	0           	                	;
 I-AV-343        	753         	0           	                	;
 I-AV-344        	733.3       	0           	                	;
 I-AV-345        	704.9       	0           	                	;
 I-AV-347        	731.6       	0           	                	;
 I-AV-349        	731.7       	0           	                	;
 I-AV-350        	609.1       	0           	                	;
 I-AV-351        	671.2       	0           	                	;
 I-AV-353        	734.3       	0           	                	;
 I-AV-354        	717.6       	0           	                	;
 I-AV-356        	718.3       	0           	                	;
 I-AV-357        	699.6       	0           	                	;
 I-AV-359        	714.7       	0           	                	;
 I-AV-36         	755.7       	0           	                	;
 I-AV-360        	695.4       	0           	                	;
 I-AV-361        	732.5       	0           	                	;
 I-AV-362        	751.9       	0           	                	;
 I-AV-363        	747.2       	0           	                	;
 I-AV-365        	737.9       	0           	                	;
 I-AV-366        	745.4       	0           	                	;
 I-AV-368        	751.2       	0           	                	;
 I-AV-369        	724.9       	0           	                	;
 I-AV-37         	758.2       	0           	                	;
 I-AV-370        	735.8       	0           	                	;
 I-AV-372        	748.8       	0           	                	;
 I-AV-373        	724.8       	0           	                	;
 I-AV-374        	726.2       	0           	                	;
 I-AV-376        	732.4       	0           	                	;
 I-AV-377        	714.2       	0           	                	;
 I-AV-378        	705.5       	0           	                	;
 I-AV-379        	701.2       	0           	                	;
 I-AV-382        	731.4       	0           	                	;
 I-AV-383        	736.5       	0           	                	;
 I-AV-384        	743.5       	0           	                	;
 I-AV-385        	746         	0           	                	;
 I-AV-386        	745.2       	0           	                	;
 I-AV-388        	725.2       	0           	                	;
 I-AV-389        	723         	0           	                	;
 I-AV-390        	703.1       	0           	                	;
 I-AV-392        	702.7       	0           	                	;
 I-AV-394        	629.9       	0           	                	;
 I-AV-395        	748.5       	0           	                	;
 I-AV-396        	748.2       	0           	                	;
 I-AV-397        	743         	0           	                	;
 I-AV-398        	743.4       	0           	                	;
 I-AV-399        	744.6       	0           	                	;
 I-AV-4          	583.1       	0           	                	;
 I-AV-400        	744.4       	0           	                	;
 I-AV-401        	744.6       	0           	                	;
 I-AV-402        	726.6       	0           	                	;
 I-AV-403        	722.2       	0           	                	;
 I-AV-404        	715.3       	0           	                	;
 I-AV-405        	718.3       	0           	                	;
 I-AV-407        	697.1       	0           	                	;
 I-AV-408        	743.5       	0           	                	;
 I-AV-41         	741.9       	0           	                	;
 I-AV-410        	657.9       	0           	                	;
 I-AV-411        	638.8       	0           	                	;
 I-AV-414        	739.5       	0           	                	;
 I-AV-415        	747.2       	0           	                	;
 I-AV-416        	647.2       	0           	                	;
 I-AV-417        	732.2       	0           	                	;
 I-AV-419        	748.5       	0           	                	;
 I-AV-420        	686         	0           	                	;
 I-AV-421        	753.3       	0           	                	;
 I-AV-422        	728         	0           	                	;
 I-AV-423        	719.3       	0           	                	;
 I-AV-424        	673.1       	0           	                	;
 I-AV-425        	673.1       	0           	                	;
 I-AV-426        	668.6       	0           	                	;
 I-AV-43         	754.5       	0           	                	;
 I-AV-430        	658.9       	0           	                	;
 I-AV-431        	687.6       	0           	                	;
 I-AV-432        	632         	0           	                	;
 I-AV-433        	644.8       	0           	                	;
 I-AV-434        	712         	0           	                	;
 I-AV-435        	712         	0           	                	;
 I-AV-436        	755.2       	0           	                	;
 I-AV-437        	642         	0           	                	;
 I-AV-438        	734.2       	0           	                	;
 I-AV-439        	692.9       	0           	                	;
 I-AV-44         	740.1       	0           	                	;
 I-AV-440        	638.3       	0           	                	;
 I-AV-442        	732.4       	0           	                	;
 I-AV-443        	747.5       	0           	                	;
 I-AV-446        	725         	0           	                	;
 I-AV-447        	716.7       	0           	                	;
 I-AV-448        	727.2       	0           	                	;
 I-AV-45         	718         	0           	                	;
 I-AV-450        	728.9       	0           	                	;
 I-AV-452        	634.4       	0           	                	;
 I-AV-453        	729.8       	0           	                	;
 I-AV-458        	756.2       	0           	                	;
 I-AV-46         	716.1       	0           	                	;
 I-AV-461        	696.4       	0           	                	;
 I-AV-462        	717.1       	0           	                	;
 I-AV-463        	729.6       	0           	                	;
 I-AV-464        	759.6       	0           	                	;
 I-AV-465        	707.9       	0           	                	;
 I-AV-467        	757.2       	0           	                	;
 I-AV-468        	713.5       	0           	                	;
 I-AV-469        	671.1       	0           	                	;
 I-AV-471        	741.2       	0           	                	;
 I-AV-472        	744.1       	0           	                	;
 I-AV-473        	744         	0           	                	;
 I-AV-474        	743.9       	0           	                	;
 I-AV-475        	752.9       	0           	                	;
 I-AV-476        	634.4       	0           	                	;
 I-AV-477        	684.9       	0           	                	;
 I-AV-478        	683.8       	0           	                	;
 I-AV-479        	662.1       	0           	                	;
 I-AV-48         	722.9       	0           	                	;
 I-AV-480        	660.1       	0           	                	;
 I-AV-481        	676.7       	0           	                	;
 I-AV-482        	694         	0           	                	;
 I-AV-483        	699.3       	0           	                	;
 I-AV-484        	741.2       	0           	                	;
 I-AV-485        	698.9       	0           	                	;
 I-AV-486        	745.8       	0           	                	;
 I-AV-487        	744.2       	0           	                	;
 I-AV-488        	568.5       	0           	                	;
 I-AV-489        	620.6       	0           	                	;
 I-AV-49         	692.8       	0           	                	;
 I-AV-490        	681.7       	0           	                	;
 I-AV-491        	621.5       	0           	                	;
 I-AV-493        	739.1       	0           	                	;
 I-AV-494        	759.2       	0           	                	;
 I-AV-495        	778.6       	0           	                	;
 I-AV-496        	780.6       	0           	                	;
 I-AV-497        	778.7       	0           	                	;
 I-AV-498        	778.3       	0           	                	;
 I-AV-499        	626.7       	0           	                	;
 I-AV-5          	748         	0           	                	;
 I-AV-50         	690.9       	0           	                	;
 I-AV-501        	691.7       	0           	                	;
 I-AV-502        	705.5       	0           	                	;
 I-AV-503        	741.2       	0           	                	;
 I-AV-504        	741.3       	0           	                	;
 I-AV-505        	732.1       	0           	                	;
 I-AV-506        	713.4       	0           	                	;
 I-AV-510        	754.2       	0           	                	;
 I-AV-511        	712         	0           	                	;
 I-AV-52         	690.5       	0           	                	;
 I-AV-54         	653.2       	0           	                	;
 I-AV-55         	691.1       	0           	                	;
 I-AV-56         	580.6       	0           	                	;
 I-AV-57         	699.4       	0           	                	;
 I-AV-58         	656.3       	0           	                	;
 I-AV-6          	714         	0           	                	;
 I-AV-61         	763.1       	0           	                	;
 I-AV-62         	762.9       	0           	                	;
 I-AV-63         	721.1       	0           	                	;
 I-AV-65         	719.5       	0           	                	;
 I-AV-67         	710.9       	0           	                	;
 I-AV-69         	700.4       	0           	                	;
 I-AV-72         	620.7       	0           	                	;
 I-AV-73         	578.3       	0           	                	;
 I-AV-74         	749         	0           	                	;
 I-AV-75         	694.2       	0           	                	;
 I-AV-76         	707.2       	0           	                	;
 I-AV-77         	707.4       	0           	                	;
 I-AV-80         	724.5       	0           	                	;
 I-AV-81         	771.6       	0           	                	;
 I-AV-82         	579.2       	0           	                	;
 I-AV-84         	628.4       	0           	                	;
 I-AV-85         	740.4       	0           	                	;
 I-AV-87         	697.1       	0           	                	;
 I-AV-88         	697.4       	0           	                	;
 I-AV-9          	674.2       	0           	                	;
 I-AV-90         	719.4       	0           	                	;
 I-AV-91         	727.3       	0           	                	;
 I-AV-92         	754         	0           	                	;
 I-AV-94         	615.5       	0           	                	;
 I-AV-95         	619.4       	0           	                	;
 I-AV-96         	753.5       	0           	                	;
 I-AV-97         	626.4       	0           	                	;
 I-AV-99         	613.5       	0           	                	;
 I-Pump-1        	492         	0           	                	;
 I-Pump-2        	631.8       	0           	                	;
 I-RV-1          	604.3511    	0           	                	;
 J-1             	643.6125    	2           	2               	;
 J-10            	699.2517    	0.5         	1               	;
 J-100           	706.6241    	0.9         	1               	;
 J-101           	721.9749    	1.9         	1               	;
 J-102           	699         	2.3         	1               	;
 J-103           	700.1707    	0.4         	1               	;
 J-104           	661.9227    	2           	1               	;
 J-105           	620.8951    	3.3         	1               	;
 J-106           	702.9526    	0.2         	1               	;
 J-107           	724.6389    	2.7         	1               	;
 J-108           	714.287     	8.3         	1               	;
 J-109           	677.0813    	2.1         	1               	;
 J-11            	639.8109    	0           	                	;
 J-110           	697.841     	6           	1               	;
 J-111           	722.9426    	4.6         	1               	;
 J-112           	699.6057    	7.2         	1               	;
 J-113           	751.429     	1.3         	1               	;
 J-114           	747.5352    	0           	                	;
 J-115           	718.5488    	1.1         	1               	;
 J-116           	749.7524    	10          	1               	;
 J-117           	737.0958    	6.5         	1               	;
 J-118           	757.892     	1.6         	1               	;
 J-119           	706.8279    	0           	                	;
 J-12            	654.2697    	0           	                	;
 J-120           	719.4997    	1.4         	1               	;
 J-121           	658.1661    	2.3         	1               	;
 J-122           	684.7508    	1.8         	1               	;
 J-123           	736.569     	0.6         	1               	;
 J-124           	737.1031    	0.7         	1               	;
 J-125           	756.1769    	0.6         	1               	;
 J-126           	750.9568    	1.4         	1               	;
 J-127           	752.6689    	1.7         	1               	;
 J-128           	696.2079    	8.7         	1               	;
 J-129           	720.2266    	3           	1               	;
 J-13            	700.7192    	4.5         	1               	;
 J-130           	622.5479    	15.2        	1               	;
 J-131           	662         	0           	                	;
 J-132           	755.6663    	1.6         	1               	;
 J-133           	745.0037    	0.9         	1               	;
 J-134           	744.9968    	0.4         	1               	;
 J-135           	614.4324    	1.8         	1               	;
 J-136           	568.7617    	2.6         	1               	;
 J-137           	713.144     	3.1         	1               	;
 J-138           	748.9752    	0.4         	1               	;
 J-139           	726.5599    	0.5         	1               	;
 J-14            	728.1481    	2.3         	1               	;
 J-140           	700.8099    	0.5         	1               	;
 J-141           	677.5147    	1           	1               	;
 J-142           	679.8157    	0.4         	1               	;
 J-143           	679.1898    	1           	1               	;
 J-144           	730.7416    	1.1         	1               	;
 J-145           	746.7308    	0.7         	1               	;
 J-146           	726.3184    	0.7         	1               	;
 J-147           	720.9639    	2.7         	1               	;
 J-148           	716.0075    	0.4         	1               	;
 J-149           	711.5045    	3.1         	1               	;
 J-15            	708.2805    	3.7         	1               	;
 J-150           	711.5497    	0.7         	1               	;
 J-151           	713.5779    	1.3         	1               	;
 J-152           	660.092     	1.1         	1               	;
 J-153           	673.2422    	5.8         	1               	;
 J-154           	662.0144    	1.2         	1               	;
 J-155           	655.0755    	2.6         	1               	;
 J-156           	726.9587    	1           	1               	;
 J-157           	721.9517    	1.9         	1               	;
 J-158           	693.6124    	2.3         	1               	;
 J-159           	700.7714    	6.3         	1               	;
 J-16            	709.0622    	5.1         	1               	;
 J-160           	708.5355    	6.3         	1               	;
 J-161           	752.8376    	0.5         	1               	;
 J-162           	648.4593    	1.5         	1               	;
 J-163           	661.763     	2.2         	1               	;
 J-164           	745.0728    	0.6         	1               	;
 J-165           	739.3818    	0.6         	1               	;
 J-166           	677.7961    	7.6         	1               	;
 J-167           	628.4075    	13.7        	1               	;
 J-168           	680.0114    	2           	1               	;
 J-169           	692.4512    	0.7         	1               	;
 J-17            	670.1029    	8           	1               	;
 J-170           	726.1071    	0.6         	1               	;
 J-171           	707.0815    	0.4         	1               	;
 J-172           	721.5562    	1.3         	1               	;
 J-173           	690.7065    	0.8         	1               	;
 J-174           	714.9791    	0.4         	1               	;
 J-175           	732.9838    	1.4         	1               	;
 J-176           	697.326     	0.3         	1               	;
 J-177           	680.2117    	0.9         	1               	;
 J-178           	681.6132    	0.6         	1               	;
 J-179           	685.8229    	0.9         	1               	;
 J-18            	672.5078    	14.6        	1               	;
 J-180           	687.5209    	0.4         	1               	;
 J-181           	715.0813    	1.1         	1               	;
 J-182           	699.1184    	0.3         	1               	;
 J-183           	719.3694    	0.8         	1               	;
 J-184           	670.1994    	0.6         	1               	;
 J-185           	707.3434    	1.8         	1               	;
 J-186           	743.3083    	3.2         	1               	;
 J-187           	646.5865    	0.6         	1               	;
 J-188           	748.9653    	0.4         	1               	;
 J-189           	787.8117    	1.2         	1               	;
 J-19            	662.1807    	3           	1               	;
 J-190           	785.3893    	4.1         	1               	;
 J-191           	758.5847    	7.2         	1               	;
 J-192           	728.7211    	2.4         	1               	;
 J-193           	700.9354    	2.4         	1               	;
 J-194           	714.6756    	1.4         	1               	;
 J-195           	715.3506    	1           	1               	;
 J-196           	797.8422    	1.3         	1               	;
 J-197           	806.4025    	0.8         	1               	;
 J-198           	667.8842    	2.3         	1               	;
 J-199           	666.7734    	3           	1               	;
 J-2             	691.5479    	3           	1               	;
 J-20            	639.9435    	13.3        	1               	;
 J-200           	719.5262    	0.7         	1               	;
 J-201           	701.1988    	1.5         	1               	;
 J-202           	808.8744    	0.3         	1               	;
 J-203           	803.7195    	1.7         	1               	;
 J-204           	691.5361    	0.7         	1               	;
 J-205           	726.3391    	1.2         	1               	;
 J-206           	661.3133    	0.6         	1               	;
 J-207           	747.6619    	0.2         	1               	;
 J-208           	725.7711    	0.2         	1               	;
 J-209           	706.4233    	3           	1               	;
 J-21            	675.5066    	14.5        	1               	;
 J-210           	715.0793    	1.9         	1               	;
 J-211           	677.7067    	1.4         	1               	;