[TITLE]


[JUNCTIONS]
;ID              	Elev        	Demand      	Pattern         
 O-AV-100        	964.6000    	0.000000    	1               	;
 I-AV-101        	994.1000    	0.000000    	1               	;
 O-AV-105        	987.5000    	0.000000    	1               	;
 O-AV-106        	990.8000    	0.000000    	1               	;
 I-AV-107        	981.0000    	0.000000    	1               	;
 O-AV-108        	951.4000    	0.000000    	1               	;
 I-AV-109        	935.0000    	0.000000    	1               	;
 O-AV-110        	948.2000    	0.000000    	1               	;
 I-AV-111        	935.0000    	0.000000    	1               	;
 I-AV-112        	1049.9000   	0.000000    	1               	;
 I-AV-113        	1003.9000   	0.000000    	1               	;
 O-AV-114        	925.2000    	0.000000    	1               	;
 O-AV-115        	925.2000    	0.000000    	1               	;
 O-AV-12         	967.9000    	0.000000    	1               	;
 O-AV-122        	984.3000    	0.000000    	1               	;
 I-AV-123        	981.0000    	0.000000    	1               	;
 I-AV-125        	967.9000    	0.000000    	1               	;
 I-AV-126        	902.2000    	0.000000    	1               	;
 I-AV-127        	908.8000    	0.000000    	1               	;
 O-AV-128        	925.2000    	0.000000    	1               	;
 O-AV-129        	925.2000    	0.000000    	1               	;
 I-AV-130        	938.3000    	0.000000    	1               	;
 I-AV-131        	935.0000    	0.000000    	1               	;
 I-AV-134        	948.2000    	0.000000    	1               	;
 O-AV-135        	1007.2000   	0.000000    	1               	;
 I-AV-136        	958.0000    	0.000000    	1               	;
 I-AV-137        	925.2000    	0.000000    	1               	;
 I-AV-138        	941.6000    	0.000000    	1               	;
 I-AV-139        	918.6000    	0.000000    	1               	;
 I-AV-142        	941.6000    	0.000000    	1               	;
 O-AV-143        	948.2000    	0.000000    	1               	;
 O-AV-144        	938.3000    	0.000000    	1               	;
 O-AV-145        	967.9000    	0.000000    	1               	;
 O-AV-146        	994.1000    	0.000000    	1               	;
 I-AV-147        	944.9000    	0.000000    	1               	;
 I-AV-149        	961.3000    	0.000000    	1               	;
 I-AV-150        	948.2000    	0.000000    	1               	;
 O-AV-152        	954.7000    	0.000000    	1               	;
 O-AV-153        	958.0000    	0.000000    	1               	;
 O-AV-155        	971.1000    	0.000000    	1               	;
 O-AV-156        	974.4000    	0.000000    	1               	;
 O-AV-158        	951.4000    	0.000000    	1               	;
 O-AV-16         	981.0000    	0.000000    	1               	;
 O-AV-160        	954.7000    	0.000000    	1               	;
 O-AV-162        	951.4000    	0.000000    	1               	;
 I-AV-163        	951.4000    	0.000000    	1               	;
 I-AV-165        	941.6000    	0.000000    	1               	;
 I-AV-166        	977.7000    	0.000000    	1               	;
 O-AV-168        	997.4000    	0.000000    	1               	;
 I-AV-169        	981.0000    	0.000000    	1               	;
 I-AV-170        	1007.2000   	0.000000    	1               	;
 I-AV-171        	984.3000    	0.000000    	1               	;
 I-AV-173        	1007.2000   	0.000000    	1               	;
 O-AV-174        	987.5000    	0.000000    	1               	;
 I-AV-175        	997.4000    	0.000000    	1               	;
 I-AV-177        	1010.5000   	0.000000    	1               	;
 I-AV-178        	1013.8000   	0.000000    	1               	;
 I-AV-179        	1020.3000   	0.000000    	1               	;
 I-AV-18         	948.2000    	0.000000    	1               	;
 I-AV-180        	1013.8000   	0.000000    	1               	;
 I-AV-181        	997.4000    	0.000000    	1               	;
 O-AV-183        	987.5000    	0.000000    	1               	;
 O-AV-185        	967.9000    	0.000000    	1               	;
 I-AV-186        	964.6000    	0.000000    	1               	;
 I-AV-189        	981.0000    	0.000000    	1               	;
 I-AV-190        	1003.9000   	0.000000    	1               	;
 I-AV-191        	961.3000    	0.000000    	1               	;
 O-AV-194        	1007.2000   	0.000000    	1               	;
 I-AV-195        	997.4000    	0.000000    	1               	;
 O-AV-196        	925.2000    	0.000000    	1               	;
 O-AV-198        	967.9000    	0.000000    	1               	;
 I-AV-199        	948.2000    	0.000000    	1               	;
 I-AV-200        	958.0000    	0.000000    	1               	;
 I-AV-201        	990.8000    	0.000000    	1               	;
 I-AV-203        	977.7000    	0.000000    	1               	;
 O-AV-204        	977.7000    	0.000000    	1               	;
 I-AV-205        	977.7000    	0.000000    	1               	;
 O-AV-206        	984.3000    	0.000000    	1               	;
 I-AV-208        	967.9000    	0.000000    	1               	;
 O-AV-209        	1000.7000   	0.000000    	1               	;
 I-AV-211        	971.1000    	0.000000    	1               	;
 I-AV-212        	990.8000    	0.000000    	1               	;
 I-AV-215        	997.4000    	0.000000    	1               	;
 O-AV-216        	974.4000    	0.000000    	1               	;
 I-AV-217        	987.5000    	0.000000    	1               	;
 O-AV-218        	1007.2000   	0.000000    	1               	;
 I-AV-219        	1007.2000   	0.000000    	1               	;
 I-AV-22         	954.7000    	0.000000    	1               	;
 I-AV-222        	1013.8000   	0.000000    	1               	;
 O-AV-223        	1049.9000   	0.000000    	1               	;
 O-AV-224        	990.8000    	0.000000    	1               	;
 I-AV-225        	997.4000    	0.000000    	1               	;
 I-AV-226        	1010.5000   	0.000000    	1               	;
 I-AV-228        	1017.1000   	0.000000    	1               	;
 I-AV-229        	1000.7000   	0.000000    	1               	;
 O-AV-231        	1017.1000   	0.000000    	1               	;
 O-AV-233        	977.7000    	0.000000    	1               	;
 O-AV-234        	981.0000    	0.000000    	1               	;
 I-AV-235        	1003.9000   	0.000000    	1               	;
 I-AV-236        	990.8000    	0.000000    	1               	;
 O-AV-237        	994.1000    	0.000000    	1               	;
 I-AV-238        	1007.2000   	0.000000    	1               	;
 I-AV-239        	1007.2000   	0.000000    	1               	;
 I-AV-241        	1017.1000   	0.000000    	1               	;
 O-AV-243        	974.4000    	0.000000    	1               	;
 I-AV-244        	987.5000    	0.000000    	1               	;
 O-AV-245        	961.3000    	0.000000    	1               	;
 O-AV-246        	1013.8000   	0.000000    	1               	;
 I-AV-25         	987.5000    	0.000000    	1               	;
 O-AV-250        	981.0000    	0.000000    	1               	;
 O-AV-252        	997.4000    	0.000000    	1               	;
 O-AV-253        	1013.8000   	0.000000    	1               	;
 O-AV-254        	977.7000    	0.000000    	1               	;
 O-AV-255        	1023.6000   	0.000000    	1               	;
 I-AV-256        	1017.1000   	0.000000    	1               	;
 I-AV-257        	1013.8000   	0.000000    	1               	;
 O-AV-258        	1003.9000   	0.000000    	1               	;
 I-AV-259        	1000.7000   	0.000000    	1               	;
 O-AV-26         	974.4000    	0.000000    	1               	;
 I-AV-260        	994.1000    	0.000000    	1               	;
 O-AV-261        	997.4000    	0.000000    	1               	;
 I-AV-262        	994.1000    	0.000000    	1               	;
 O-AV-263        	1000.7000   	0.000000    	1               	;
 I-AV-265        	990.8000    	0.000000    	1               	;
 O-AV-266        	984.3000    	0.000000    	1               	;
 O-AV-267        	987.5000    	0.000000    	1               	;
 I-AV-268        	1007.2000   	0.000000    	1               	;
 I-AV-269        	994.1000    	0.000000    	1               	;
 O-AV-27         	981.0000    	0.000000    	1               	;
 O-AV-271        	1007.2000   	0.000000    	1               	;
 O-AV-273        	1000.7000   	0.000000    	1               	;
 O-AV-274        	1003.9000   	0.000000    	1               	;
 O-AV-275        	1023.6000   	0.000000    	1               	;
 O-AV-276        	1003.9000   	0.000000    	1               	;
 O-AV-277        	1020.3000   	0.000000    	1               	;
 I-AV-279        	1010.5000   	0.000000    	1               	;
 I-AV-28         	964.6000    	0.000000    	1               	;
 O-AV-281        	974.4000    	0.000000    	1               	;
 O-AV-282        	984.3000    	0.000000    	1               	;
 O-AV-283        	981.0000    	0.000000    	1               	;
 O-AV-286        	987.5000    	0.000000    	1               	;
 I-AV-287        	974.4000    	0.000000    	1               	;
 I-AV-290        	1013.8000   	0.000000    	1               	;
 I-AV-291        	1000.7000   	0.000000    	1               	;
 O-AV-292        	984.3000    	0.000000    	1               	;
 O-AV-293        	990.8000    	0.000000    	1               	;
 O-AV-294        	1000.7000   	0.000000    	1               	;
 O-AV-296        	1013.8000   	0.000000    	1               	;
 O-AV-297        	990.8000    	0.000000    	1               	;
 I-AV-298        	987.5000    	0.000000    	1               	;
 O-AV-299        	964.6000    	0.000000    	1               	;
 I-AV-3          	948.2000    	0.000000    	1               	;
 I-AV-302        	1003.9000   	0.000000    	1               	;
 O-AV-305        	1010.5000   	0.000000    	1               	;
 O-AV-306        	1017.1000   	0.000000    	1               	;
 I-AV-307        	1017.1000   	0.000000    	1               	;
 O-AV-308        	1003.9000   	0.000000    	1               	;
 O-AV-31         	951.4000    	0.000000    	1               	;
 I-AV-310        	981.0000    	0.000000    	1               	;
 I-AV-312        	997.4000    	0.000000    	1               	;
 O-AV-313        	994.1000    	0.000000    	1               	;
 I-AV-315        	1000.7000   	0.000000    	1               	;
 I-AV-319        	990.8000    	0.000000    	1               	;
 O-AV-32         	961.3000    	0.000000    	1               	;
 O-AV-320        	997.4000    	0.000000    	1               	;
 O-AV-321        	984.3000    	0.000000    	1               	;
 O-AV-322        	987.5000    	0.000000    	1               	;
 I-AV-323        	1007.2000   	0.000000    	1               	;
 I-AV-325        	977.7000    	0.000000    	1               	;
 I-AV-327        	971.1000    	0.000000    	1               	;
 I-AV-330        	981.0000    	0.000000    	1               	;
 I-AV-334        	1040.0000   	0.000000    	1               	;
 O-AV-335        	994.1000    	0.000000    	1               	;
 O-AV-338        	990.8000    	0.000000    	1               	;
 I-AV-341        	977.7000    	0.000000    	1               	;
 O-AV-342        	974.4000    	0.000000    	1               	;
 O-AV-343        	974.4000    	0.000000    	1               	;
 I-AV-344        	981.0000    	0.000000    	1               	;
 I-AV-345        	987.5000    	0.000000    	1               	;
 O-AV-346        	1010.5000   	0.000000    	1               	;
 O-AV-348        	958.0000    	0.000000    	1               	;
 O-AV-349        	964.6000    	0.000000    	1               	;
 O-AV-352        	951.4000    	0.000000    	1               	;
 O-AV-354        	964.6000    	0.000000    	1               	;
 O-AV-355        	977.7000    	0.000000    	1               	;
 O-AV-357        	997.4000    	0.000000    	1               	;
 O-AV-358        	984.3000    	0.000000    	1               	;
 O-AV-359        	977.7000    	0.000000    	1               	;
 O-AV-36         	951.4000    	0.000000    	1               	;
 O-AV-360        	974.4000    	0.000000    	1               	;
 O-AV-361        	948.2000    	0.000000    	1               	;
 O-AV-363        	944.9000    	0.000000    	1               	;
 I-AV-364        	948.2000    	0.000000    	1               	;
 I-AV-366        	971.1000    	0.000000    	1               	;
 O-AV-369        	974.4000    	0.000000    	1               	;
 O-AV-37         	974.4000    	0.000000    	1               	;
 O-AV-370        	954.7000    	0.000000    	1               	;
 O-AV-371        	977.7000    	0.000000    	1               	;
 I-AV-372        	974.4000    	0.000000    	1               	;
 I-AV-374        	974.4000    	0.000000    	1               	;
 O-AV-375        	997.4000    	0.000000    	1               	;
 I-AV-376        	990.8000    	0.000000    	1               	;
 I-AV-377        	1013.8000   	0.000000    	1               	;
 O-AV-378        	987.5000    	0.000000    	1               	;
 O-AV-379        	948.2000    	0.000000    	1               	;
 I-AV-380        	1000.7000   	0.000000    	1               	;
 I-AV-381        	981.0000    	0.000000    	1               	;
 I-AV-382        	997.4000    	0.000000    	1               	;
 O-AV-383        	984.3000    	0.000000    	1               	;
 O-AV-384        	984.3000    	0.000000    	1               	;
 I-AV-385        	990.8000    	0.000000    	1               	;
 O-AV-388        	967.9000    	0.000000    	1               	;
 I-AV-389        	1010.5000   	0.000000    	1               	;
 O-AV-39         	971.1000    	0.000000    	1               	;
 I-AV-390        	958.0000    	0.000000    	1               	;
 I-AV-391        	1010.5000   	0.000000    	1               	;
 I-AV-393        	1003.9000   	0.000000    	1               	;
 O-AV-398        	1007.2000   	0.000000    	1               	;
 I-AV-40         	967.9000    	0.000000    	1               	;
 O-AV-401        	987.5000    	0.000000    	1               	;
 O-AV-402        	958.0000    	0.000000    	1               	;
 O-AV-403        	961.3000    	0.000000    	1               	;
 I-AV-404        	961.3000    	0.000000    	1               	;
 I-AV-405        	987.5000    	0.000000    	1               	;
 I-AV-406        	977.7000    	0.000000    	1               	;
 O-AV-407        	994.1000    	0.000000    	1               	;
 I-AV-408        	984.3000    	0.000000    	1               	;
 O-AV-409        	977.7000    	0.000000    	1               	;
 I-AV-41         	951.4000    	0.000000    	1               	;
 I-AV-413        	1003.9000   	0.000000    	1               	;
 O-AV-415        	997.4000    	0.000000    	1               	;
 O-AV-416        	1010.5000   	0.000000    	1               	;
 O-AV-417        	1003.9000   	0.000000    	1               	;
 I-AV-418        	1010.5000   	0.000000    	1               	;
 I-AV-419        	997.4000    	0.000000    	1               	;
 O-AV-421        	1003.9000   	0.000000    	1               	;
 I-AV-423        	984.3000    	0.000000    	1               	;
 O-AV-424        	1023.6000   	0.000000    	1               	;
 O-AV-425        	1013.8000   	0.000000    	1               	;
 O-AV-426        	1003.9000   	0.000000    	1               	;
 O-AV-429        	1023.6000   	0.000000    	1               	;
 I-AV-43         	958.0000    	0.000000    	1               	;
 I-AV-431        	1017.1000   	0.000000    	1               	;
 O-AV-432        	1013.8000   	0.000000    	1               	;
 I-AV-435        	1017.1000   	0.000000    	1               	;
 I-AV-436        	1007.2000   	0.000000    	1               	;
 I-AV-438        	1010.5000   	0.000000    	1               	;
 O-AV-44         	935.0000    	0.000000    	1               	;
 O-AV-440        	1026.9000   	0.000000    	1               	;
 I-AV-442        	1023.6000   	0.000000    	1               	;
 I-AV-444        	1026.9000   	0.000000    	1               	;
 O-AV-445        	1063.0000   	0.000000    	1               	;
 I-AV-446        	990.8000    	0.000000    	1               	;
 O-AV-450        	1040.0000   	0.000000    	1               	;
 I-AV-451        	1026.9000   	0.000000    	1               	;
 O-AV-452        	1003.9000   	0.000000    	1               	;
 O-AV-453        	1007.2000   	0.000000    	1               	;
 O-AV-454        	1010.5000   	0.000000    	1               	;
 O-AV-455        	990.8000    	0.000000    	1               	;
 I-AV-456        	1007.2000   	0.000000    	1               	;
 O-AV-46         	987.5000    	0.000000    	1               	;
 I-AV-460        	1000.7000   	0.000000    	1               	;
 O-AV-462        	1007.2000   	0.000000    	1               	;
 O-AV-465        	1013.8000   	0.000000    	1               	;
 O-AV-467        	1003.9000   	0.000000    	1               	;
 O-AV-469        	1023.6000   	0.000000    	1               	;
 I-AV-47         	990.8000    	0.000000    	1               	;
 O-AV-470        	1020.3000   	0.000000    	1               	;
 I-AV-471        	1033.5000   	0.000000    	1               	;
 O-AV-472        	1033.5000   	0.000000    	1               	;
 O-AV-473        	1043.3000   	0.000000    	1               	;
 I-AV-474        	1036.8000   	0.000000    	1               	;
 O-AV-475        	1020.3000   	0.000000    	1               	;
 O-AV-477        	1017.1000   	0.000000    	1               	;
 O-AV-478        	1013.8000   	0.000000    	1               	;
 I-AV-479        	994.1000    	0.000000    	1               	;
 I-AV-480        	1017.1000   	0.000000    	1               	;
 I-AV-481        	977.7000    	0.000000    	1               	;
 I-AV-482        	997.4000    	0.000000    	1               	;
 O-AV-483        	994.1000    	0.000000    	1               	;
 I-AV-485        	1000.7000   	0.000000    	1               	;
 I-AV-487        	1033.5000   	0.000000    	1               	;
 O-AV-488        	1026.9000   	0.000000    	1               	;
 O-AV-489        	1007.2000   	0.000000    	1               	;
 O-AV-49         	1007.2000   	0.000000    	1               	;
 O-AV-490        	1007.2000   	0.000000    	1               	;
 I-AV-493        	994.1000    	0.000000    	1               	;
 I-AV-494        	1003.9000   	0.000000    	1               	;
 I-AV-495        	1003.9000   	0.000000    	1               	;
 I-AV-496        	1007.2000   	0.000000    	1               	;
 O-AV-497        	987.5000    	0.000000    	1               	;
 O-AV-498        	951.4000    	0.000000    	1               	;
 O-AV-499        	951.4000    	0.000000    	1               	;
 I-AV-5          	951.4000    	0.000000    	1               	;
 I-AV-50         	1000.7000   	0.000000    	1               	;
 O-AV-503        	944.9000    	0.000000    	1               	;
 I-AV-505        	958.0000    	0.000000    	1               	;
 I-AV-506        	958.0000    	0.000000    	1               	;
 O-AV-507        	984.3000    	0.000000    	1               	;
 O-AV-509        	928.5000    	0.000000    	1               	;
 I-AV-51         	1013.8000   	0.000000    	1               	;
 I-AV-510        	958.0000    	0.000000    	1               	;
 O-AV-511        	928.5000    	0.000000    	1               	;
 I-AV-514        	941.6000    	0.000000    	1               	;
 O-AV-515        	971.1000    	0.000000    	1               	;
 I-AV-516        	990.8000    	0.000000    	1               	;
 O-AV-518        	1010.5000   	0.000000    	1               	;
 O-AV-519        	997.4000    	0.000000    	1               	;
 O-AV-52         	987.5000    	0.000000    	1               	;
 I-AV-520        	994.1000    	0.000000    	1               	;
 I-AV-522        	984.3000    	0.000000    	1               	;
 O-AV-523        	1003.9000   	0.000000    	1               	;
 O-AV-524        	1007.2000   	0.000000    	1               	;
 O-AV-525        	1003.9000   	0.000000    	1               	;
 O-AV-526        	1000.7000   	0.000000    	1               	;
 O-AV-527        	1010.5000   	0.000000    	1               	;
 O-AV-528        	990.8000    	0.000000    	1               	;
 O-AV-529        	987.5000    	0.000000    	1               	;
 I-AV-530        	938.3000    	0.000000    	1               	;
 O-AV-531        	961.3000    	0.000000    	1               	;
 I-AV-532        	935.0000    	0.000000    	1               	;
 I-AV-533        	918.6000    	0.000000    	1               	;
 O-AV-534        	990.8000    	0.000000    	1               	;
 O-AV-535        	928.5000    	0.000000    	1               	;
 I-AV-536        	938.3000    	0.000000    	1               	;
 I-AV-537        	958.0000    	0.000000    	1               	;
 I-AV-539        	931.8000    	0.000000    	1               	;
 I-AV-540        	928.5000    	0.000000    	1               	;
 I-AV-541        	928.5000    	0.000000    	1               	;
 O-AV-542        	967.9000    	0.000000    	1               	;
 O-AV-543        	931.8000    	0.000000    	1               	;
 O-AV-545        	984.3000    	0.000000    	1               	;
 I-AV-546        	931.8000    	0.000000    	1               	;
 I-AV-548        	944.9000    	0.000000    	1               	;
 I-AV-549        	948.2000    	0.000000    	1               	;
 O-AV-55         	1013.8000   	0.000000    	1               	;
 I-AV-550        	951.4000    	0.000000    	1               	;
 I-AV-551        	938.3000    	0.000000    	1               	;
 I-AV-552        	977.7000    	0.000000    	1               	;
 I-AV-554        	981.0000    	0.000000    	1               	;
 I-AV-557        	990.8000    	0.000000    	1               	;
 O-AV-559        	977.7000    	0.000000    	1               	;
 I-AV-56         	1003.9000   	0.000000    	1               	;
 O-AV-562        	971.1000    	0.000000    	1               	;
 O-AV-563        	964.6000    	0.000000    	1               	;
 O-AV-564        	941.6000    	0.000000    	1               	;
 O-AV-568        	994.1000    	0.000000    	1               	;
 O-AV-569        	951.4000    	0.000000    	1               	;
 I-AV-57         	1013.8000   	0.000000    	1               	;
 I-AV-572        	958.0000    	0.000000    	1               	;
 O-AV-574        	964.6000    	0.000000    	1               	;
 O-AV-576        	938.3000    	0.000000    	1               	;
 I-AV-577        	964.6000    	0.000000    	1               	;
 O-AV-579        	987.5000    	0.000000    	1               	;
 I-AV-58         	1003.9000   	0.000000    	1               	;
 I-AV-581        	925.2000    	0.000000    	1               	;
 I-AV-582        	905.5000    	0.000000    	1               	;
 I-AV-583        	905.5000    	0.000000    	1               	;
 O-AV-584        	912.1000    	0.000000    	1               	;
 O-AV-585        	935.0000    	0.000000    	1               	;
 I-AV-586        	931.8000    	0.000000    	1               	;
 I-AV-589        	921.9000    	0.000000    	1               	;
 O-AV-590        	984.3000    	0.000000    	1               	;
 I-AV-591        	902.2000    	0.000000    	1               	;
 I-AV-593        	918.6000    	0.000000    	1               	;
 I-AV-594        	967.9000    	0.000000    	1               	;
 I-AV-595        	964.6000    	0.000000    	1               	;
 O-AV-597        	964.6000    	0.000000    	1               	;
 I-AV-598        	921.9000    	0.000000    	1               	;
 O-AV-599        	931.8000    	0.000000    	1               	;
 I-AV-6          	944.9000    	0.000000    	1               	;
 I-AV-60         	1013.8000   	0.000000    	1               	;
 I-AV-600        	948.2000    	0.000000    	1               	;
 I-AV-603        	885.8000    	0.000000    	1               	;
 O-AV-604        	912.1000    	0.000000    	1               	;
 O-AV-605        	885.8000    	0.000000    	1               	;
 O-AV-606        	908.8000    	0.000000    	1               	;
 O-AV-609        	905.5000    	0.000000    	1               	;
 O-AV-61         	1010.5000   	0.000000    	1               	;
 I-AV-611        	961.3000    	0.000000    	1               	;
 O-AV-613        	944.9000    	0.000000    	1               	;
 O-AV-616        	938.3000    	0.000000    	1               	;
 I-AV-617        	935.0000    	0.000000    	1               	;
 I-AV-618        	938.3000    	0.000000    	1               	;
 I-AV-619        	941.6000    	0.000000    	1               	;
 O-AV-62         	990.8000    	0.000000    	1               	;
 O-AV-621        	944.9000    	0.000000    	1               	;
 I-AV-622        	964.6000    	0.000000    	1               	;
 O-AV-624        	971.1000    	0.000000    	1               	;
 I-AV-625        	967.9000    	0.000000    	1               	;
 O-AV-627        	974.4000    	0.000000    	1               	;
 I-AV-628        	977.7000    	0.000000    	1               	;
 I-AV-630        	971.1000    	0.000000    	1               	;
 O-AV-631        	974.4000    	0.000000    	1               	;
 O-AV-632        	977.7000    	0.000000    	1               	;
 I-AV-633        	977.7000    	0.000000    	1               	;
 O-AV-634        	938.3000    	0.000000    	1               	;
 O-AV-635        	938.3000    	0.000000    	1               	;
 O-AV-636        	948.2000    	0.000000    	1               	;
 I-AV-637        	964.6000    	0.000000    	1               	;
 I-AV-638        	961.3000    	0.000000    	1               	;
 O-AV-64         	1003.9000   	0.000000    	1               	;
 I-AV-641        	1040.0000   	0.000000    	1               	;
 I-AV-642        	1026.9000   	0.000000    	1               	;
 O-AV-643        	1007.2000   	0.000000    	1               	;
 I-AV-646        	1056.4000   	0.000000    	1               	;
 I-AV-647        	1000.7000   	0.000000    	1               	;
 I-AV-648        	987.5000    	0.000000    	1               	;
 I-AV-649        	987.5000    	0.000000    	1               	;
 I-AV-650        	1010.5000   	0.000000    	1               	;
 I-AV-654        	974.4000    	0.000000    	1               	;
 I-AV-655        	984.3000    	0.000000    	1               	;
 I-AV-656        	941.6000    	0.000000    	1               	;
 I-AV-657        	961.3000    	0.000000    	1               	;
 O-AV-659        	928.5000    	0.000000    	1               	;
 O-AV-66         	1010.5000   	0.000000    	1               	;
 I-AV-660        	964.6000    	0.000000    	1               	;
 I-AV-661        	961.3000    	0.000000    	1               	;
 O-AV-662        	977.7000    	0.000000    	1               	;
 O-AV-663        	984.3000    	0.000000    	1               	;
 I-AV-665        	954.7000    	0.000000    	1               	;
 O-AV-666        	1020.3000   	0.000000    	1               	;
 I-AV-667        	987.5000    	0.000000    	1               	;
 O-AV-669        	951.4000    	0.000000    	1               	;
 O-AV-67         	997.4000    	0.000000    	1               	;
 O-AV-671        	954.7000    	0.000000    	1               	;
 O-AV-672        	958.0000    	0.000000    	1               	;
 O-AV-674        	921.9000    	0.000000    	1               	;
 O-AV-675        	948.2000    	0.000000    	1               	;
 I-AV-677        	912.1000    	0.000000    	1               	;
 O-AV-678        	974.4000    	0.000000    	1               	;
 I-AV-679        	954.7000    	0.000000    	1               	;
 I-AV-680        	974.4000    	0.000000    	1               	;
 I-AV-681        	879.3000    	0.000000    	1               	;
 O-AV-682        	958.0000    	0.000000    	1               	;
 I-AV-683        	889.1000    	0.000000    	1               	;
 O-AV-684        	899.0000    	0.000000    	1               	;
 O-AV-685        	961.3000    	0.000000    	1               	;
 O-AV-686        	981.0000    	0.000000    	1               	;
 O-AV-688        	892.4000    	0.000000    	1               	;
 I-AV-689        	977.7000    	0.000000    	1               	;
 I-AV-691        	981.0000    	0.000000    	1               	;
 I-AV-692        	964.6000    	0.000000    	1               	;
 O-AV-693        	915.4000    	0.000000    	1               	;
 O-AV-694        	921.9000    	0.000000    	1               	;
 O-AV-695        	918.6000    	0.000000    	1               	;
 I-AV-696        	908.8000    	0.000000    	1               	;
 I-AV-7          	935.0000    	0.000000    	1               	;
 O-AV-701        	974.4000    	0.000000    	1               	;
 I-AV-703        	944.9000    	0.000000    	1               	;
 O-AV-704        	951.4000    	0.000000    	1               	;
 I-AV-705        	948.2000    	0.000000    	1               	;
 O-AV-706        	1010.5000   	0.000000    	1               	;
 O-AV-707        	1023.6000   	0.000000    	1               	;
 I-AV-709        	1030.2000   	0.000000    	1               	;
 I-AV-710        	1020.3000   	0.000000    	1               	;
 I-AV-711        	971.1000    	0.000000    	1               	;
 O-AV-713        	1023.6000   	0.000000    	1               	;
 I-AV-714        	1030.2000   	0.000000    	1               	;
 I-AV-716        	974.4000    	0.000000    	1               	;
 O-AV-717        	990.8000    	0.000000    	1               	;
 I-AV-718        	981.0000    	0.000000    	1               	;
 I-AV-720        	977.7000    	0.000000    	1               	;
 I-AV-721        	967.9000    	0.000000    	1               	;
 I-AV-722        	938.3000    	0.000000    	1               	;
 I-AV-73         	1007.2000   	0.000000    	1               	;
 I-AV-730        	951.4000    	0.000000    	1               	;
 O-AV-731        	984.3000    	0.000000    	1               	;
 I-AV-733        	981.0000    	0.000000    	1               	;
 I-AV-735        	954.7000    	0.000000    	1               	;
 I-AV-736        	944.9000    	0.000000    	1               	;
 O-AV-737        	974.4000    	0.000000    	1               	;
 O-AV-738        	964.6000    	0.000000    	1               	;
 I-AV-739        	944.9000    	0.000000    	1               	;