; Filename: networks/new/z watergems_poprawka.inp
; WNTR: 0.1.5
; Created: 2018-11-23 13:26:55
[TITLE]
Scenario: Base
Date: 20.11.2018 20:48:56

[JUNCTIONS]
;ID                      Elevation       Demand Pattern                 
 I-Pump-1                146.20317216               0 1                          ;
 O-Pump-1                146.20317216               0 1                          ;
 J-99                    144.61741968    0.1703435318 1                          ;
 J-98                        153.3144  0.044794039844 1                          ;
 J-97                        153.3144  0.054257569388 1                          ;
 J-96                    139.27262976   0.08580266787 1                          ;
 J-95                    139.97214576   0.18863968892 1                          ;
 J-94                    149.24489328  0.039746824087 1                          ;
 J-93                     149.2157544  0.037854118178 1                          ;
 J-92                     154.0224504  0.087064471809 1                          ;
 J-91                    155.56921896   0.24289725831 1                          ;
 J-90                    155.37405552   0.24289725831 1                          ;
 J-9                     142.72893984   0.19494870862 1                          ;
 J-89                     159.0915792   0.25677710164 1                          ;
 J-88                     143.3064444  0.030914196512 1                          ;
 J-87                    152.41328928  0.063721098933 1                          ;
 J-86                    142.07435136  0.060566589085 1                          ;
 J-85                    140.57851488  0.047948549692 1                          ;
 J-84                     140.0514852  0.012618039393 1                          ;
 J-83                    141.28235904   0.06813741272 1                          ;
 J-82                    146.21371824   0.10914604075 1                          ;
 J-81                    149.13647592  0.063090196963 1                          ;
 J-809                   149.90158488               0 1                          ;
 J-808                   144.74653296               0 1                          ;
 J-807                   144.12943488               0 1                          ;
 J-806                   155.64868032               0 1                          ;
 J-805                   139.32371424               0 1                          ;
 J-804                     157.187646  0.088957177718 1                          ;
 J-803                   147.21160296               0 1                          ;
 J-802                   149.84979936               0 1                          ;
 J-801                   145.76995992               0 1                          ;
 J-800                   138.56982192  0.025236078785 1                          ;
 J-80                    148.01182488    0.1287040018 1                          ;
 J-8                     136.25709096   0.13942933529 1                          ;
 J-799                   147.55319232               0 1                          ;
 J-798                    144.9206652               0 1                          ;
 J-797                   144.18439032               0 1                          ;
 J-796                    142.1131524               0 1                          ;
 J-795                   138.84999408               0 1                          ;
 J-794                   138.70972512               0 1                          ;
 J-793                   139.42506024               0 1                          ;
 J-792                   136.23151824               0 1                          ;
 J-791                   135.65227632               0 1                          ;
 J-790                   135.71914944               0 1                          ;
 J-79                     156.4555164   0.16908172786 1                          ;
 J-789                   137.08178832               0 1                          ;
 J-788                    138.9616728               0 1                          ;
 J-787                   138.72490416               0 1                          ;
 J-786                   139.78057896               0 1                          ;
 J-785                   136.57597272               0 1                          ;
 J-784                   134.22395304               0 1                          ;
 J-783                   135.90495552               0 1                          ;
 J-782                     139.885674               0 1                          ;
 J-781                   139.83151104               0 1                          ;
 J-780                    144.3000924               0 1                          ;
 J-78                    156.52635192  0.090218981657 1                          ;
 J-779                    142.9798512               0 1                          ;
 J-778                   144.22255128               0 1                          ;
 J-777                   143.66370048               0 1                          ;
 J-776                   144.15933576               0 1                          ;
 J-775                    139.9126488               0 1                          ;
 J-774                   140.80821216               0 1                          ;
 J-773                   154.95327912   0.20819764998 1                          ;
 J-772                   147.77639736  0.027128784694 1                          ;
 J-771                   152.59623024  0.014510745302 1                          ;
 J-770                   159.45042024  0.036592314239 1                          ;
 J-77                     158.6723268   0.17980706135 1                          ;
 J-769                   142.07654592               0 1                          ;
 J-768                   145.33360824               0 1                          ;
 J-767                    153.0609588  0.066244706811 1                          ;
 J-766                     137.127996  0.015141647271 1                          ;
 J-765                   159.28412136  0.046686745753 1                          ;
 J-764                    155.8090356  0.032176000451 1                          ;
 J-763                   134.61815088  0.041008628026 1                          ;
 J-762                   136.65320904  0.065613804842 1                          ;
 J-761                   147.15204504               0 1                          ;
 J-760                   134.14366872  0.074446432417 1                          ;
 J-76                    158.82545832   0.19557961059 1                          ;
 J-759                   138.23027472  0.018296157119 1                          ;
 J-758                       145.9992   0.13375121756 1                          ;
 J-757                   155.19154128   0.19810321846 1                          ;
 J-756                    144.7367184   0.54194479191 1                          ;
 J-755                   146.44951152   0.16971262983 1                          ;
 J-754                   142.60903152 0.00063090196963 1                          ;
 J-753                   148.09265784  0.026497882725 1                          ;
 J-752                      158.55696   0.27885867058 1                          ;
 J-751                   144.89295888  0.042901333935 1                          ;
 J-750                   144.43624656  0.012618039393 1                          ;
 J-75                     158.8888872   0.18737788498 1                          ;
 J-749                   134.93188152   0.20882855195 1                          ;
 J-748                    144.9305712  0.075077334386 1                          ;
 J-747                   151.79881248  0.090218981657 1                          ;
 J-746                   135.94253736  0.035330510299 1                          ;
 J-745                   149.89509264   0.15204737468 1                          ;
 J-744                   136.85471232  0.011987137423 1                          ;
 J-743                   134.64728976  0.049841255601 1                          ;
 J-742                   141.06287256   0.15394008059 1                          ;
 J-741                   150.95774736   0.01703435318 1                          ;
 J-740                    137.3533956  0.087064471809 1                          ;
 J-74                     152.4537972  0.077600942265 1                          ;
 J-739                   155.28292032  0.010094431514 1                          ;
 J-738                   157.50927096   0.25614619967 1                          ;
 J-737                    135.6122256  0.098420707263 1                          ;
 J-736                   143.85106104  0.080755452113 1                          ;
 J-735                   142.37095224  0.087695373779 1                          ;
 J-734                   146.98714824   0.72175185326 1                          ;
 J-733                   150.12719784   0.13942933529 1                          ;
 J-732                   141.19320504  0.064982902872 1                          ;
 J-731                    140.8947144   0.17097443377 1                          ;
 J-730                   148.81536912   0.13816753135 1                          ;
 J-73                    150.32790864   0.26624063118 1                          ;
 J-729                    144.3200568   0.12554949196 1                          ;
 J-728                   139.59827808  0.093373491506 1                          ;
 J-727                   146.10234432               0 1                          ;
 J-726                   141.04217664  0.024605176816 1                          ;
 J-725                   142.74747168  0.059304785145 1                          ;
 J-724                   134.56453656  0.035330510299 1                          ;
 J-723                   151.33115784  0.047317647722 1                          ;
 J-722                   150.74947752  0.025866980755 1                          ;
 J-721                   149.36178408 0.0012618039393 1                          ;
 J-720                   153.53153952   0.14889286483 1                          ;
 J-72                    149.25769488  0.011987137423 1                          ;
 J-719                    152.6129028  0.011987137423 1                          ;
 J-718                   146.01105672   0.24668267013 1                          ;
 J-717                   142.75938936    0.1558327865 1                          ;
 J-716                   150.76913712   0.16908172786 1                          ;
 J-715                    138.3916968 0.0075708236356 1                          ;
 J-714                   140.28014616  0.093373491506 1                          ;
 J-713                   155.51755536   0.33879435769 1                          ;
 J-712                    135.8944704  0.046055843783 1                          ;
 J-711                   140.82244632  0.014510745302 1                          ;
 J-710                   145.24491144  0.075077334386 1                          ;
 J-71                    149.08344072 0.0088326275748 1                          ;
 J-709                   146.57764944   0.16529631604 1                          ;
 J-708                   146.08359912   0.10157521711 1                          ;
 J-707                   153.11161656  0.066244706811 1                          ;
 J-706                   147.61930344  0.023343372876 1                          ;
 J-705                   146.37056832               0 1                          ;
 J-704                   144.66847368               0 1                          ;
 J-703                     152.770332   0.13753662938 1                          ;
 J-702                    150.5916216  0.037223216208 1                          ;
 J-701                   136.86806256  0.079493648174 1                          ;
 J-700                   141.76909416   0.03406870636 1                          ;
 J-70                    152.37948696   0.17412894362 1                          ;
 J-7                     139.61720616   0.15330917862 1                          ;
 J-699                   145.76447352  0.043532235905 1                          ;
 J-698                   143.93497248  0.039115922117 1                          ;
 J-697                     138.545316   0.13816753135 1                          ;
 J-696                   156.70673256   0.03406870636 1                          ;
 J-695                    140.8118088  0.037854118178 1                          ;
 J-694                   140.37765168   0.60061867509 1                          ;
 J-693                      151.53894  0.029652392573 1                          ;
 J-692                   144.68493288  0.047317647722 1                          ;
 J-691                   136.77835992  0.054257569388 1                          ;
 J-690                   141.51236112  0.099051609232 1                          ;
 J-69                    152.14634544   0.18169976725 1                          ;
 J-689                   142.90901568  0.064982902872 1                          ;
 J-688                   142.80370728  0.050472157571 1                          ;
 J-687                   140.07949632  0.066244706811 1                          ;
 J-686                   142.87826136  0.052364863479 1                          ;
 J-685                   143.31397296  0.030283294542 1                          ;
 J-684                    158.1524904   0.17854525741 1                          ;
 J-683                   159.71516952    0.2845367883 1                          ;
 J-682                     134.182866  0.046055843783 1                          ;
 J-681                   153.13337928  0.090849883627 1                          ;
 J-680                   140.77059984   0.13122760968 1                          ;
 J-68                    151.09277376  0.061828393024 1                          ;
 J-679                   144.34697064  0.011987137423 1                          ;
 J-678                    133.7989704   0.05173396151 1                          ;
 J-677                   136.42872384  0.039115922117 1                          ;
 J-676                   134.50653312   0.18800878695 1                          ;
 J-675                    146.9512428   0.30157114148 1                          ;
 J-674                    141.0315696   0.17097443377 1                          ;
 J-673                       135.9408   0.25677710164 1                          ;
 J-672                   143.52989328    0.1059915309 1                          ;
 J-671                   155.83207848  0.045424941813 1                          ;
 J-670                   139.69066296   0.25803890558 1                          ;
 J-67                    151.16092704   0.17160533574 1                          ;
 J-669                   150.37670712   0.17917615938 1                          ;
 J-668                   158.60392968  0.010094431514 1                          ;
 J-667                   137.83674744   0.01766525515 1                          ;
 J-666                   140.88410736  0.061197491054 1                          ;
 J-665                   140.83037112   0.18043796331 1                          ;
 J-664                   158.79391152   0.10472972696 1                          ;
 J-663                   149.09304192  0.071922824538 1                          ;
 J-662                   136.63629264   0.01766525515 1                          ;
 J-661                   146.32707336   0.17286713968 1                          ;
 J-660                    132.5881524  0.054257569388 1                          ;
 J-66                    134.75308584   0.22333929725 1                          ;
 J-659                   139.30131144   0.11103874666 1                          ;
 J-658                   150.56482968   0.20882855195 1                          ;
 J-657                   150.30041568  0.087695373779 1                          ;
 J-656                   144.63269016  0.090218981657 1                          ;
 J-655                   141.80634072               0 1                          ;
 J-654                   150.53947032  0.081386354083 1                          ;
 J-653                   147.80797464  0.089588079688 1                          ;
 J-652                   147.82382424   0.12428768802 1                          ;
 J-651                   135.79550184  0.041639529996 1                          ;
 J-650                   135.62673408   0.14069113923 1                          ;
 J-65                    134.97491928   0.16592721801 1                          ;
 J-649                     137.995914  0.077600942265 1                          ;
 J-648                    150.1133904   0.13753662938 1                          ;
 J-647                   134.10535536   0.25930070952 1                          ;
 J-646                   149.99564616  0.097789805293 1                          ;
 J-645                   149.52991176    0.1413220412 1                          ;
 J-644                   155.90593152  0.057412079236 1                          ;
 J-643                   150.65581248  0.018296157119 1                          ;
 J-642                   158.56710984  0.056781177267 1                          ;
 J-641                   151.96447128  0.098420707263 1                          ;
 J-640                   155.68260456   0.18296157119 1                          ;
 J-64                      158.534862   0.11356235453 1                          ;
 J-639                    139.7494284   0.16845082589 1                          ;
 J-638                   134.49440208  0.099682511202 1                          ;
 J-637                   134.13269592  0.042270431965 1                          ;
 J-636                   140.13582336   0.19242510074 1                          ;
 J-635                   147.55937976  0.080755452113 1                          ;
 J-634                   147.77258736   0.18990149286 1                          ;
 J-633                    140.3151372  0.023343372876 1                          ;
 J-632                    138.5907312  0.078231844234 1                          ;
 J-631                   136.92146352   0.16277270817 1                          ;
 J-630                     139.145772  0.048579451662 1                          ;
 J-63                    160.76444352   0.17475984559 1                          ;
 J-629                   139.15665336  0.037223216208 1                          ;
 J-628                    159.9098148   0.27822776861 1                          ;
 J-627                    146.4080892  0.040377726056 1                          ;
 J-626                       146.9136   0.24542086619 1                          ;
 J-625                    155.4269688  0.056150275297 1                          ;
 J-624                   138.34801896   0.13059670771 1                          ;
 J-623                    154.8449532  0.078862746204 1                          ;
 J-622                    155.1669744   0.15330917862 1                          ;
 J-621                   153.41669088   0.12176408014 1                          ;
 J-620                   148.65388608  0.090849883627 1                          ;
 J-62                    139.02284616   0.12491858999 1                          ;
 J-619                   154.90280424  0.076339138325 1                          ;
 J-618                     154.587702  0.019557961059 1                          ;
 J-617                   159.29768496  0.054257569388 1                          ;
 J-616                   133.58433024  0.030914196512 1                          ;
 J-615                   146.58877464  0.065613804842 1                          ;
 J-614                   146.04452376  0.070661020599 1                          ;
 J-613                   135.94957824   0.10346792302 1                          ;
 J-612                    158.1445656   0.12239498211 1                          ;
 J-611                   142.60924488   0.10031341317 1                          ;
 J-610                     152.719278   0.05173396151 1                          ;
 J-61                    143.02992984   0.14889286483 1                          ;
 J-609                   134.67959856  0.038485020148 1                          ;
 J-608                     145.676112  0.010094431514 1                          ;
 J-607                   139.59142008  0.044163137874 1                          ;
 J-606                      145.94967  0.029652392573 1                          ;
 J-605                       136.2456   0.26245521937 1                          ;
 J-604                   137.34574512   0.19494870862 1                          ;
 J-603                   136.21768032  0.035330510299 1                          ;
 J-602                   140.90087136   0.11924047226 1                          ;
 J-601                   149.03692824  0.071291922568 1                          ;
 J-600                     145.788888  0.010094431514 1                          ;
 J-60                    138.06684096  0.090218981657 1                          ;
 J-6                     151.32475704   0.22144659134 1                          ;
 J-599                   147.07550976  0.046055843783 1                          ;
 J-598                   154.37635368   0.35456690693 1                          ;
 J-597                   143.94603672   0.49210353631 1                          ;
 J-596                   138.62017488   0.34005616163 1                          ;
 J-595                   146.29107648   0.15330917862 1                          ;
 J-594                   155.55215016   0.03406870636 1                          ;
 J-593                   143.50489968  0.099682511202 1                          ;
 J-592                    145.3018176  0.092742589536 1                          ;
 J-591                   138.27623856  0.037223216208 1                          ;
 J-590                   135.07751496  0.066875608781 1                          ;
 J-59                    142.93068696   0.24289725831 1                          ;
 J-589                   135.39776832   0.16340361013 1                          ;
 J-588                    159.0060828   0.17097443377 1                          ;
 J-587                    158.3225688  0.061197491054 1                          ;
 J-586                   142.15939056   0.11797866832 1                          ;
 J-585                     144.096486   0.24478996422 1                          ;
 J-584                   152.13448872   0.11860957029 1                          ;
 J-583                   146.20030704   0.20882855195 1                          ;
 J-582                   157.39920768   0.12491858999 1                          ;
 J-581                   142.66258488  0.098420707263 1                          ;
 J-580                   142.84836048   0.13690572741 1                          ;
 J-58                    151.56749976  0.025866980755 1                          ;
 J-579                   150.10936704   0.16592721801 1                          ;
 J-578                     145.711926   0.05173396151 1                          ;
 J-577                   147.14268768  0.028390588633 1                          ;
 J-576                   154.57051128  0.014510745302 1                          ;
 J-575                   149.16756552   0.10851513878 1                          ;
 J-574                   142.76597304   0.06813741272 1                          ;
 J-573                   143.86569144   0.21072125786 1                          ;
 J-572                   144.78018288  0.054888471358 1                          ;
 J-571                   146.67884304  0.015772549241 1                          ;
 J-570                   151.08353832  0.047317647722 1                          ;
 J-57                    149.24778888  0.044163137874 1                          ;
 J-569                   149.81380248   0.12807309984 1                          ;
 J-568                      158.98368  0.013879843332 1                          ;
 J-567                   139.60306344  0.045424941813 1                          ;
 J-566                   140.92492008  0.099682511202 1                          ;
 J-565                   145.61887056   0.08643356984 1                          ;
 J-564                   139.42524312  0.078862746204 1                          ;
 J-563                   152.67069288  0.094635295445 1                          ;
 J-562                   159.30198264  0.038485020148 1                          ;
 J-561                   159.11386008   0.37412486799 1                          ;
 J-560                   134.61031752    0.1766525515 1                          ;
 J-56                    144.85013448   0.16466541407 1                          ;
 J-559                    134.3729088   0.19684141453 1                          ;
 J-558                    134.6322936  0.087064471809 1                          ;
 J-557                       134.7216   0.11860957029 1                          ;
 J-556                   144.47526096  0.022081568937 1                          ;
 J-555                   144.47547432   0.13059670771 1                          ;
 J-554                   154.05808152   0.15961819832 1                          ;
 J-553                   150.86636832  0.080124550143 1                          ;
 J-552                   158.68491504  0.061197491054 1                          ;
 J-551                   144.79033272  0.043532235905 1                          ;
 J-550                   152.72436816  0.072553726508 1                          ;
 J-55                    144.88878312  0.037223216208 1                          ;
 J-549                   154.81633248   0.10094431514 1                          ;
 J-548                   136.61794368   0.13122760968 1                          ;
 J-547                   144.58639104  0.096528001354 1                          ;
 J-546                   142.63311072  0.077600942265 1                          ;
 J-545                   142.50073608  0.032806902421 1                          ;
 J-544                   144.39040464  0.092111687566 1                          ;
 J-543                   146.23337784  0.056150275297 1                          ;
 J-542                   143.10673944    0.1495237668 1                          ;
 J-541                   140.29596528   0.14636925695 1                          ;
 J-540                   144.25202544   0.17791435544 1                          ;
 J-54                    158.67854472   0.12554949196 1                          ;
 J-539                   145.58839056  0.089588079688 1                          ;
 J-538                    145.0483764   0.15394008059 1                          ;
 J-537                   143.78165808   0.17917615938 1                          ;
 J-536                   145.52700384   0.10157521711 1                          ;
 J-535                   146.21496792  0.023974274846 1                          ;
 J-534                   144.86317992    0.1141932565 1                          ;
 J-533                   148.88891736   0.17412894362 1                          ;
 J-532                   152.23135416  0.066875608781 1                          ;
 J-531                    142.2911556  0.037854118178 1                          ;
 J-530                   140.67294192  0.064982902872 1                          ;
 J-53                    158.90485872   0.73436989265 1                          ;
 J-529                    146.0051436  0.084540863931 1                          ;
 J-528                   156.66634656   0.06813741272 1                          ;
 J-527                   148.63654296   0.14321474711 1                          ;
 J-526                   146.10856224  0.090218981657 1                          ;
 J-525                   154.47120744   0.17223623771 1                          ;
 J-524                    158.5148976  0.077600942265 1                          ;
 J-523                   139.45794816   0.13816753135 1                          ;
 J-522                   139.05820296   0.08580266787 1                          ;
 J-521                   147.13616496   0.16024910029 1                          ;
 J-520                   153.48307632   0.10094431514 1                          ;
 J-52                    148.72420344   0.13627482544 1                          ;
 J-519                   137.31099792  0.075077334386 1                          ;
 J-518                   139.34349576  0.078862746204 1                          ;
 J-517                   144.48089976   0.10914604075 1                          ;
 J-516                   159.56008728   0.29147670997 1                          ;
 J-515                   152.06386656   0.12996580574 1                          ;
 J-514                   151.47313368   0.11860957029 1                          ;
 J-513                   153.23432904   0.21261396377 1                          ;
 J-512                   147.71229792  0.070661020599 1                          ;
 J-511                   138.92305464   0.24289725831 1                          ;
 J-510                   142.34605008 0.0088326275748 1                          ;
 J-51                    146.30403048   0.11987137423 1                          ;
 J-509                   139.29387432   0.18233066922 1                          ;
 J-508                   146.94536016   0.14321474711 1                          ;
 J-507                   142.66231056   0.11608596241 1                          ;