; Filename: ../networks/chosen/hydrant_model_Ala_hydranty_2.inp
; WNTR: 0.2.1
; Created: 2019-12-12 09:00:01
[TITLE]
Scenario: EPS
Date: 22.11.2019 09:47:15

[JUNCTIONS]
;ID                      Elevation       Demand Pattern                 
 J-36                        362.4072               0                            ;
 J-190                       329.4888   0.23848094452 Pattern-1                  ;
 J-62                        338.6328   0.23848094452 Pattern-1                  ;
 J-156                       355.7016   0.67569600948 Pattern-1                  ;
 J-79                        378.2568   0.55645553722 Pattern-1                  ;
 J-143                       352.3488   0.83468330582 Pattern-1                  ;
 J-70                        356.0064   0.47696188904 Pattern-1                  ;
 FH-38                        348.996               0                            ;
 J-144                       366.0648     0.914176954 Pattern-1                  ;
 J-146                       350.2152   0.67569600948 Pattern-1                  ;
 J-105                       376.1232   0.47696188904 Pattern-1                  ;
 J-91                        371.5512   0.23848094452 Pattern-1                  ;
 J-132                       336.1944   0.35772141678 Pattern-1                  ;
 J-65                        345.3384   0.23848094452 Pattern-1                  ;
 J-170                       354.7872               0                            ;
 J-24                         352.044   0.39746824087 Pattern-1                  ;
 J-128                       347.1672   0.31797459269 Pattern-1                  ;
 J-88                         348.996   0.87443012991 Pattern-1                  ;
 J-166                       342.2904   0.23848094452 Pattern-1                  ;
 J-171                        326.136   0.35772141678 Pattern-1                  ;
 J-68                        332.5368    0.5962023613 Pattern-1                  ;
 J-2                          344.424               0                            ;
 J-52                        331.9272               0                            ;
 J-85                        341.0712   0.31797459269 Pattern-1                  ;
 J-53                        347.1672               0                            ;
 J-188                        329.184   0.27822776861 Pattern-1                  ;
 J-172                       355.7016   0.51670871313 Pattern-1                  ;
 J-73                        345.6432   0.15898729635 Pattern-1                  ;
 J-58                        355.7016   0.19873412043 Pattern-1                  ;
 J-177                        371.856   0.31797459269 Pattern-1                  ;
 J-187                        368.808    0.5962023613 Pattern-1                  ;
 J-74                        356.9208   0.19873412043 Pattern-1                  ;
 J-10                        347.7768               0                            ;
 J-72                        334.9752   0.27822776861 Pattern-1                  ;
 J-57                        350.8248   0.27822776861 Pattern-1                  ;
 J-145                       326.4408               0                            ;
 J-119                       368.1984   0.67569600948 Pattern-1                  ;
 J-92                        358.7496   0.47696188904 Pattern-1                  ;
 J-116                       369.1128    0.5962023613 Pattern-1                  ;
 J-17                        342.2904               0                            ;
 J-38                        340.7664               0                            ;
 J-9                         338.6328   0.35772141678 Pattern-1                  ;
 J-154                       331.6224               0                            ;
 J-98                         339.852               0                            ;
 J-46                        345.6432    1.3116451949 Pattern-1                  ;
 J-14                          373.38   0.11924047226 Pattern-1                  ;
 J-66                        355.7016   0.19873412043 Pattern-1                  ;
 J-90                          373.38   0.39746824087 Pattern-1                  ;
 J-134                       362.4072   0.35772141678 Pattern-1                  ;
 J-131                       310.5912               0                            ;
 J-84                        352.3488   0.31797459269 Pattern-1                  ;
 J-37                        368.1984   0.39746824087 Pattern-1                  ;
 J-86                        357.8352   0.31797459269 Pattern-1                  ;
 J-61                        363.0168    0.5962023613 Pattern-1                  ;
 J-139                       352.3488   0.67569600948 Pattern-1                  ;
 J-54                        350.2152   0.31797459269 Pattern-1                  ;
 J-153                       338.9376   0.43721506495 Pattern-1                  ;
 J-103                       324.3072   0.55645553722 Pattern-1                  ;
 J-39                        334.0608   0.71544283356 Pattern-1                  ;
 J-181                       360.8832    1.0334174263 Pattern-1                  ;
 J-160                       328.5744   0.43721506495 Pattern-1                  ;
 J-5                         354.1776   0.43721506495 Pattern-1                  ;
 J-31                        338.6328               0                            ;
 J-87                        358.4448   0.75518965765 Pattern-1                  ;
 J-63                        324.9168   0.71544283356 Pattern-1                  ;
 J-78                        369.7224    0.5962023613 Pattern-1                  ;
 J-167                       352.6536   0.87443012991 Pattern-1                  ;
 J-48                         361.188   0.43721506495 Pattern-1                  ;
 J-169                       366.6744               0                            ;
 J-185                       351.4344   0.63594918539 Pattern-1                  ;
 J-133                       334.3656   0.35772141678 Pattern-1                  ;
 J-136                       364.8456   0.43721506495 Pattern-1                  ;
 J-33                         341.376               0                            ;
 J-130                        348.996               0                            ;
 J-149                       360.8832   0.35772141678 Pattern-1                  ;
 J-168                        338.328   0.31797459269 Pattern-1                  ;
 J-8                         337.7184               0                            ;
 J-29                        353.2632   0.11924047226 Pattern-1                  ;
 J-35                         341.376   0.35772141678 Pattern-1                  ;
 J-183                       356.9208   0.31797459269 Pattern-1                  ;
 J-51                        343.2048   0.39746824087 Pattern-1                  ;
 FH-22                       342.5952               0                            ;
 J-69                        358.4448   0.23848094452 Pattern-1                  ;
 J-25                        345.3384   0.19873412043 Pattern-1                  ;
 J-117                        356.616   0.43721506495 Pattern-1                  ;
 J-112                       329.7936   0.15898729635 Pattern-1                  ;
 J-45                         355.092               0                            ;
 J-155                       341.0712   0.79493648174 Pattern-1                  ;
 J-13                        348.6912   0.79493648174 Pattern-1                  ;
 J-67                         332.232   0.31797459269 Pattern-1                  ;
 J-40                         347.472   0.55645553722 Pattern-1                  ;
 J-118                       374.2944   0.71544283356 Pattern-1                  ;
 J-44                        362.1024               0                            ;
 J-101                       357.5304   0.19873412043 Pattern-1                  ;
 J-56                        340.4616   0.39746824087 Pattern-1                  ;
 J-4                         358.4448               0                            ;
 J-157                       335.5848   0.47696188904 Pattern-1                  ;
 J-3                         348.3864   0.35772141678 Pattern-1                  ;
 J-121                        377.952               0                            ;
 J-28                        349.6056   0.19873412043 Pattern-1                  ;
 J-12                        354.1776               0                            ;
 J-1                         350.2152   0.31797459269 Pattern-1                  ;
 J-75                        366.6744   0.23848094452 Pattern-1                  ;
 J-129                       343.8144   0.35772141678 Pattern-1                  ;
 J-104                       341.6808   0.51670871313 Pattern-1                  ;
 J-135                       366.6744   0.23848094452 Pattern-1                  ;
 J-113                       336.1944   0.19873412043 Pattern-1                  ;
 J-126                       340.4616   0.27822776861 Pattern-1                  ;
 J-41                        354.4824   0.15898729635 Pattern-1                  ;
 J-34                        348.3864   0.63594918539 Pattern-1                  ;
 J-148                       348.3864   0.35772141678 Pattern-1                  ;
 J-47                        352.9584   0.27822776861 Pattern-1                  ;
 J-32                         333.756   0.39746824087 Pattern-1                  ;
 J-122                       341.0712   0.35772141678 Pattern-1                  ;
 J-102                       380.3904   0.63594918539 Pattern-1                  ;
 J-18                        333.1464   0.43721506495 Pattern-1                  ;
 J-123                       341.6808   0.39746824087 Pattern-1                  ;
 J-11                         347.472   0.27822776861 Pattern-1                  ;
 J-161                       354.7872   0.87443012991 Pattern-1                  ;
 J-127                       353.2632   0.55645553722 Pattern-1                  ;
 J-106                        364.236   0.71544283356 Pattern-1                  ;
 J-165                          342.9   0.67569600948 Pattern-1                  ;
 J-191                       345.3384   0.51670871313 Pattern-1                  ;
 J-193                       352.9584    1.4308856671 Pattern-1                  ;
 FH-95                       343.8144   0.31797459269 Pattern-1                  ;
 FH-23                       340.4616               0                            ;
 FH-26                       337.7184               0                            ;
 FH-11                       368.1984               0                            ;
 J-182                       376.7328   0.51670871313 Pattern-1                  ;
 FH-29                       375.8184               0                            ;
 J-194                        370.332   0.75518965765 Pattern-1                  ;
 FH-8                        366.0648               0                            ;
 FH-5                        331.6224               0                            ;
 J-196                       334.3656               0                            ;
 J-197                       359.9688   0.31797459269 Pattern-1                  ;
 J-202                       346.5576   0.19873412043 Pattern-1                  ;
 J-203                       332.5368               0                            ;
 J-204                       374.5992               0                            ;
 J-114                       350.2152   0.51670871313 Pattern-1                  ;
 J-115                        353.568   0.15898729635 Pattern-1                  ;
 J-208                       338.6328   0.23848094452 Pattern-1                  ;
 J-209                       342.5952   0.35772141678 Pattern-1                  ;
 J-210                       316.6872    0.5962023613 Pattern-1                  ;
 J-211                       320.6496   0.51670871313 Pattern-1                  ;
 FH-61                       343.8144               0                            ;
 FH-62                        348.996               0                            ;
 FH-65                       338.0232               0                            ;
 FH-73                       344.1192               0                            ;
 FH-21                       336.1944               0                            ;
 FH-78                       338.6328               0                            ;
 FH-83                       350.2152               0                            ;
 FH-85                       358.7496               0                            ;
 FH-88                       346.5576               0                            ;
 J-55                         345.948               0                            ;
 FH-93                       327.9648               0                            ;
 FH-99                       326.4408               0                            ;
 FH-100                        327.66               0                            ;
 FH-101                      347.7768               0                            ;
 FH-102                      354.1776               0                            ;
 FH-107                      338.6328               0                            ;
 FH-111                      360.2736               0                            ;
 FH-113                      372.4656               0                            ;
 FH-115                       364.236               0                            ;
 FH-117                      375.8184               0                            ;
 FH-122                      347.7768               0                            ;
 FH-123                       370.332               0                            ;
 FH-124                      369.1128               0                            ;
 FH-125                      375.2088               0                            ;
 J-120                       361.7976   0.35772141678 Pattern-1                  ;
 FH-129                       364.236               0                            ;
 FH-130                      352.9584               0                            ;
 FH-34                       350.2152               0                            ;
 FH-131                      348.6912               0                            ;
 FH-132                      359.9688               0                            ;
 FH-136                      359.3592               0                            ;
 FH-137                      347.1672               0                            ;
 FH-139                       361.188               0                            ;
 FH-145                      342.5952               0                            ;
 FH-160                      350.8248               0                            ;
 J-214                       328.2696               0                            ;
 FH-193                      325.2216               0                            ;
 FH-194                       330.708               0                            ;
 FH-195                      331.9272               0                            ;
 FH-196                      331.9272               0                            ;
 J-215                       353.8728               0                            ;
 J-216                       328.2696   0.43721506495 Pattern-1                  ;
 J-217                       325.2216   0.51670871313 Pattern-1                  ;
 J-218                       342.2904   0.31797459269 Pattern-1                  ;
 FH-204                      333.1464               0                            ;
 J-219                       328.8792               0                            ;
 FH-198                      336.1944               0                            ;
 FH-199                      329.4888               0                            ;
 FH-200                      328.8792               0                            ;
 FH-201                      322.7832               0                            ;
 FH-203                      325.8312               0                            ;
 J-220                       349.6056   0.71544283356 Pattern-1                  ;
 J-221                       358.4448   0.39746824087 Pattern-1                  ;
 J-222                        374.904   0.47696188904 Pattern-1                  ;
 J-223                       330.4032               0                            ;
 J-224                       343.2048               0                            ;
 J-225                       366.6744   0.83468330582 Pattern-1                  ;
 FH-25                        330.708               0                            ;
 J-235                         327.66               0                            ;
 J-236                        352.044               0                            ;
 J-15                        369.7224               0                            ;
 J-240                       303.8856               0                            ;
 J-250                       327.9648               0                            ;
 J-251                       327.9648               0                            ;
 J-252                        377.952               0                            ;
 J-253                        377.952               0                            ;
 J-265                       352.9584               0                            ;
 J-267                       374.5992               0                            ;
 J-268                       355.3968               0                            ;
 J-269                       347.7768               0                            ;
 J-270                       336.1944               0                            ;
 J-271                       358.4448               0                            ;
 J-272                       357.5304               0                            ;
 J-274                        361.188               0                            ;
 J-275                       358.4448               0                            ;
 J-277                         350.52               0                            ;
 H-2                         359.9688               0                            ;
 H-3                           358.14               0                            ;
 H-4                         351.4344               0                            ;
 H-6                          345.948               0                            ;
 H-7                         345.0336               0                            ;
 H-8                         344.7288               0                            ;
 H-9                         353.2632               0                            ;
 H-10                        365.4552               0                            ;
 H-11                         347.472               0                            ;
 H-16                         333.756               0                            ;
 H-17                        323.3928               0                            ;
 H-18                        337.4136               0                            ;
 H-19                        333.1464               0                            ;
 H-20                        336.1944               0                            ;
 H-21                        351.7392               0                            ;
 H-22                        326.4408               0                            ;
 H-23                        356.9208               0                            ;
 H-24                        334.3656               0                            ;
 H-25                         353.568               0                            ;
 H-26                        322.7832               0                            ;
 H-27                        334.3656               0                            ;
 H-28                           342.9               0                            ;
 H-30                         336.804               0                            ;
 H-32                        340.4616               0                            ;
 H-33                        342.5952               0                            ;
 H-34                         345.948               0                            ;
 H-35                        358.7496               0                            ;
 H-36                         352.044               0                            ;
 H-37                        344.1192               0                            ;
 H-38                        344.7288               0                            ;
 H-39                        353.2632               0                            ;
 H-40                        346.5576               0                            ;
 H-41                        352.9584               0                            ;
 H-42                         353.568               0                            ;
 H-43                        350.2152               0                            ;
 H-44                        346.5576               0                            ;
 H-45                         345.948               0                            ;
 H-46                        355.7016               0                            ;
 H-47                        350.2152               0                            ;
 H-48                        344.7288               0                            ;
 H-49                        331.6224               0                            ;
 H-50                        334.9752               0                            ;
 H-51                        328.8792               0                            ;
 H-52                        340.4616               0                            ;
 H-53                        335.8896               0                            ;
 H-54                         355.092               0                            ;
 H-55                        355.7016               0                            ;
 H-56                        348.3864               0                            ;
 H-57                        342.2904               0                            ;
 H-58                        341.6808               0                            ;
 H-59                        341.0712               0                            ;
 H-60                        345.3384               0                            ;
 H-61                        322.1736               0                            ;
 H-62                        331.9272               0                            ;
 H-63                        331.9272               0                            ;
 H-64                        315.7728               0                            ;
 H-65                         352.044               0                            ;
 H-66                        334.0608               0                            ;
 H-67                        353.8728               0                            ;
 H-68                        365.4552               0                            ;
 H-69                        355.3968               0                            ;
 H-70                        360.2736               0                            ;
 H-71                        347.7768               0                            ;
 H-72                         330.708               0                            ;
 H-73                        363.9312               0                            ;
 H-74                         333.756               0                            ;
 H-75                        334.3656               0                            ;
 H-76                          335.28               0                            ;
 H-77                        331.9272               0                            ;
 H-78                        343.5096               0                            ;
 H-79                        340.7664               0                            ;
 H-80                        342.2904               0                            ;
 H-81                         352.044               0                            ;
 H-82                        349.3008               0                            ;
 H-83                        359.9688               0                            ;
 H-84                        360.5784               0                            ;
 H-85                        363.9312               0                            ;
 H-86                        369.7224               0                            ;
 H-87                        372.7704               0                            ;
 H-88                        356.9208               0                            ;
 H-89                        354.7872               0                            ;
 H-90                        350.8248               0                            ;
 H-91                         348.996               0                            ;
 H-93                        357.5304               0                            ;
 H-94                        367.8936               0                            ;
 H-95                        359.9688               0                            ;
 H-96                         379.476               0                            ;
 H-97                        376.1232               0                            ;
 H-98                         371.856               0                            ;
 H-99                        373.9896               0                            ;
 H-100                       370.9416               0                            ;
 H-101                       377.0376               0                            ;
 H-102                       368.1984               0                            ;
 H-103                       360.8832               0                            ;
 H-104                        345.948               0                            ;
 H-105                       368.5032               0                            ;
 H-106                       374.5992               0                            ;
 H-107                       363.0168               0                            ;
 H-108                       377.0376               0                            ;
 H-109                       352.9584               0                            ;
 H-110                       369.1128               0                            ;
 H-111                       348.6912               0                            ;
 H-112                       370.9416               0                            ;
 H-113                       359.9688               0                            ;
 H-114                       366.3696               0                            ;
 H-115                         350.52               0                            ;
 H-116                       350.2152               0                            ;
 642-A                       356.9208               0                            ;
 642-B                       356.9208               0                            ;
 644-A                       359.9688               0                            ;
 644-B                       359.9688               0                            ;
 629-A                        377.952               0                            ;
 629-B                        377.952               0                            ;
 632-A                       327.9648               0                            ;
 632-B                       327.9648               0                            ;
 634-A                        377.952               0                            ;
 634-B                        377.952               0                            ;
 638-A                       327.9648               0                            ;
 638-B                       327.9648               0                            ;
 639-A                        377.952               0                            ;
 639-B                        377.952               0                            ;
 H-H-2                       361.1688               0                            ;
 H-H-3                         359.34               0                            ;
 H-H-4                       352.6344               0                            ;
 H-H-6                        347.148               0                            ;
 H-H-7                       346.2336               0                            ;
 H-H-8                       345.9288               0                            ;
 H-H-9                       354.4632               0                            ;
 H-H-10                      366.6552               0                            ;
 H-H-11                       348.672               0                            ;
 H-H-16                       334.956               0                            ;
 H-H-17                      324.5928               0                            ;
 H-H-18                      338.6136               0                            ;
 H-H-19                      334.3464               0                            ;
 H-H-20                      337.3944               0                            ;
 H-H-21                      352.9392               0                            ;
 H-H-22                      327.6408               0                            ;
 H-H-23                      358.1208               0                            ;